
     RDKit          3D

 35 37  0  0  0  0  0  0  0  0999 V2000
    2.3269    1.9746   -0.6681 C   0  0  0  0  0  0  0  0  0  0  0  0
    3.6721    1.7107   -0.7263 N   0  0  0  0  0  0  0  0  0  0  0  0
    4.1534    0.4368   -0.6090 C   0  0  0  0  0  0  0  0  0  0  0  0
    3.2295   -0.5868   -0.4309 C   0  0  0  0  0  0  0  0  0  0  0  0
    1.9083   -0.3023   -0.3805 C   0  0  0  0  0  0  0  0  0  0  0  0
    1.4283    0.9600   -0.4902 N   0  0  0  0  0  0  0  0  0  0  0  0
    1.2131   -1.4318   -0.1908 N   0  0  0  0  0  0  0  0  0  0  0  0
    2.1714   -2.3911   -0.1125 C   0  0  0  0  0  0  0  0  0  0  0  0
    3.4354   -1.9067   -0.2630 N   0  0  0  0  0  0  0  0  0  0  0  0
   -0.2269   -1.6012    0.0159 C   0  0  1  0  0  0  0  0  0  0  0  0
   -0.6136   -1.2196    1.4515 C   0  0  1  0  0  0  0  0  0  0  0  0
   -1.4334    0.0352    1.2627 C   0  0  1  0  0  0  0  0  0  0  0  0
   -1.9264   -0.1049   -0.1700 C   0  0  2  0  0  0  0  0  0  0  0  0
   -0.9384   -0.7932   -0.8992 O   0  0  0  0  0  0  0  0  0  0  0  0
   -2.2039    1.2532   -0.8308 C   0  0  0  0  0  0  0  0  0  0  0  0
   -3.1682    1.9777   -0.0933 O   0  0  0  0  0  0  0  0  0  0  0  0
   -4.6921    1.8654   -0.8554 P   0  0  0  0  0  0  0  0  0  0  0  0
   -4.6753    2.6502   -2.1478 O   0  0  0  0  0  0  0  0  0  0  0  0
   -5.8675    2.5167    0.1705 O   0  0  0  0  0  1  0  0  0  0  0  0
   -5.0805    0.2512   -1.1817 O   0  0  0  0  0  1  0  0  0  0  0  0
   -2.5108    0.1129    2.1605 O   0  0  0  0  0  0  0  0  0  0  0  0
   -1.3890   -2.2371    2.0341 O   0  0  0  0  0  0  0  0  0  0  0  0
    5.5571    0.1824   -0.6636 N   0  0  0  0  0  0  0  0  0  0  0  0
    1.9747    2.9926   -0.7616 H   0  0  0  0  0  0  0  0  0  0  0  0
    1.9573   -3.4370    0.0657 H   0  0  0  0  0  0  0  0  0  0  0  0
   -0.4944   -2.6631   -0.1855 H   0  0  0  0  0  0  0  0  0  0  0  0
    0.2744   -1.0008    2.0910 H   0  0  0  0  0  0  0  0  0  0  0  0
   -0.7748    0.9308    1.3620 H   0  0  0  0  0  0  0  0  0  0  0  0
   -2.8575   -0.7145   -0.1881 H   0  0  0  0  0  0  0  0  0  0  0  0
   -2.4641    1.1031   -1.9051 H   0  0  0  0  0  0  0  0  0  0  0  0
   -1.2651    1.8469   -0.8370 H   0  0  0  0  0  0  0  0  0  0  0  0
   -2.1240    0.3592    3.0409 H   0  0  0  0  0  0  0  0  0  0  0  0
   -0.7560   -2.9525    2.3048 H   0  0  0  0  0  0  0  0  0  0  0  0
    6.2282    0.9712   -0.7960 H   0  0  0  0  0  0  0  0  0  0  0  0
    5.9318   -0.7881   -0.5735 H   0  0  0  0  0  0  0  0  0  0  0  0
  1  2  2  0
  2  3  1  0
  3  4  2  0
  4  5  1  0
  5  6  2  0
  5  7  1  0
  7  8  1  0
  8  9  2  0
  7 10  1  0
 10 11  1  0
 11 12  1  0
 12 13  1  0
 13 14  1  0
 13 15  1  0
 15 16  1  0
 16 17  1  0
 17 18  2  0
 17 19  1  0
 17 20  1  0
 12 21  1  0
 11 22  1  0
  3 23  1  0
  6  1  1  0
  9  4  1  0
 14 10  1  0
  1 24  1  0
  8 25  1  0
 10 26  1  6
 11 27  1  1
 12 28  1  6
 13 29  1  1
 15 30  1  0
 15 31  1  0
 21 32  1  0
 22 33  1  0
 23 34  1  0
 23 35  1  0
M  CHG  2  19  -1  20  -1
M  END
>  <ScrubInfo>  (1) 
{"isomerGroup": 0, "isomerId": 0, "confId": 0, "nr_conformers:": 1, "nr_isomers:": 1}

$$$$
