REMARK SMILES NC(=O)C(C=Nc1nc(-c2ccc(Cl)c(Cl)c2)cs1)C(N)=O
REMARK SMILES IDX 5 1 4 2 2 3 1 4 3 5 20 8 21 9 22 10 6 13 7 14 8 15 19 16
REMARK SMILES IDX 9 17 18 18 10 19 11 20 17 21 12 22 15 23 13 24 16 25 14 26
REMARK H PARENT 1 6 1 7 21 11 21 12
ROOT
ATOM      1  C   UNL     1      -2.787  -0.262  -1.262  1.00  0.00     0.110 C 
ENDROOT
BRANCH   1   2
ATOM      2  C   UNL     1      -3.323   0.482  -0.061  1.00  0.00     0.208 C 
BRANCH   2   3
ATOM      3  C   UNL     1      -4.392   1.452  -0.494  1.00  0.00     0.235 C 
ATOM      4  N   UNL     1      -4.147   2.859  -0.471  1.00  0.00    -0.369 N 
ATOM      5  O   UNL     1      -5.505   1.025  -0.908  1.00  0.00    -0.274 OA
ATOM      6  H   UNL     1      -3.229   3.240  -0.153  1.00  0.00     0.159 HD
ATOM      7  H   UNL     1      -4.889   3.526  -0.779  1.00  0.00     0.159 HD
ENDBRANCH   2   3
BRANCH   2   8
ATOM      8  C   UNL     1      -3.879  -0.467   0.971  1.00  0.00     0.235 C 
ATOM      9  N   UNL     1      -4.702  -1.574   0.593  1.00  0.00    -0.369 N 
ATOM     10  O   UNL     1      -3.658  -0.252   2.192  1.00  0.00    -0.274 OA
ATOM     11  H   UNL     1      -5.084  -2.216   1.323  1.00  0.00     0.159 HD
ATOM     12  H   UNL     1      -4.948  -1.750  -0.406  1.00  0.00     0.159 HD
ENDBRANCH   2   8
ENDBRANCH   1   2
BRANCH   1  13
ATOM     13  N   UNL     1      -1.545  -0.625  -1.415  1.00  0.00    -0.231 NA
BRANCH  13  14
ATOM     14  C   UNL     1      -0.456  -0.517  -0.487  1.00  0.00     0.209 A 
ATOM     15  N   UNL     1       0.825  -0.425  -0.898  1.00  0.00    -0.218 NA
ATOM     16  S   UNL     1      -0.546  -0.716   1.181  1.00  0.00    -0.103 S 
ATOM     17  C   UNL     1       1.711  -0.465   0.138  1.00  0.00     0.084 A 
ATOM     18  C   UNL     1       1.119  -0.621   1.396  1.00  0.00     0.097 A 
BRANCH  17  19
ATOM     19  C   UNL     1       3.175  -0.354  -0.092  1.00  0.00     0.003 A 
ATOM     20  C   UNL     1       3.655   0.079  -1.343  1.00  0.00     0.012 A 
ATOM     21  C   UNL     1       4.108  -0.683   0.911  1.00  0.00     0.032 A 
ATOM     22  C   UNL     1       5.027   0.190  -1.580  1.00  0.00     0.023 A 
ATOM     23  C   UNL     1       5.484  -0.573   0.673  1.00  0.00     0.060 A 
ATOM     24  C   UNL     1       5.945  -0.133  -0.577  1.00  0.00     0.059 A 
ATOM     25  Cl  UNL     1       6.607  -0.998   1.958  1.00  0.00    -0.083 Cl
ATOM     26  Cl  UNL     1       7.664   0.020  -0.915  1.00  0.00    -0.083 Cl
ENDBRANCH  17  19
ENDBRANCH  13  14
ENDBRANCH   1  13
TORSDOF 6
