REMARK SMILES O=C(c1ccc(Cl)nc1)c1cccs1
REMARK SMILES IDX 3 1 4 2 5 3 6 4 7 5 8 6 9 7 2 8 1 9 10 10 11 11 14 12 12 13
REMARK SMILES IDX 13 14
REMARK H PARENT
ROOT
ATOM      1  C   UNL     1      -1.188  -0.024  -0.382  1.00  0.00     0.042 A 
ATOM      2  C   UNL     1      -1.087  -1.143   0.461  1.00  0.00     0.017 A 
ATOM      3  C   UNL     1      -2.218  -1.626   1.122  1.00  0.00     0.042 A 
ATOM      4  C   UNL     1      -3.447  -0.994   0.926  1.00  0.00     0.129 A 
ATOM      5  Cl  UNL     1      -4.882  -1.581   1.742  1.00  0.00    -0.062 Cl
ATOM      6  N   UNL     1      -3.536   0.077   0.094  1.00  0.00    -0.244 NA
ATOM      7  C   UNL     1      -2.449   0.566  -0.562  1.00  0.00     0.125 A 
ENDROOT
BRANCH   1   8
ATOM      8  C   UNL     1      -0.011   0.500  -1.113  1.00  0.00     0.204 C 
ATOM      9  O   UNL     1      -0.165   0.927  -2.289  1.00  0.00    -0.288 OA
BRANCH   8  10
ATOM     10  C   UNL     1       1.333   0.561  -0.504  1.00  0.00     0.075 A 
ATOM     11  C   UNL     1       2.521   0.778  -1.196  1.00  0.00     0.024 A 
ATOM     12  S   UNL     1       1.692   0.491   1.141  1.00  0.00    -0.140 S 
ATOM     13  C   UNL     1       3.645   0.851  -0.363  1.00  0.00     0.012 A 
ATOM     14  C   UNL     1       3.351   0.707   0.986  1.00  0.00     0.065 A 
ENDBRANCH   8  10
ENDBRANCH   1   8
TORSDOF 2
