REMARK SMILES CC(=O)c1sc2c(c1OC(=O)c1ccc(Cl)cc1Cl)c(=O)n(-c1ccccc1)c(=S)n2-c1ccccc1
REMARK SMILES IDX 9 1 8 2 4 3 5 4 6 5 7 6 31 7 20 8 29 9 22 10 21 11 30 12
REMARK SMILES IDX 2 13 1 14 3 15 32 16 33 17 37 18 34 19 36 20 35 21 23 22
REMARK SMILES IDX 24 23 28 24 25 25 27 26 26 27 10 28 11 29 12 30 13 31 18 32
REMARK SMILES IDX 14 33 17 34 15 35 19 36 16 37
REMARK H PARENT
ROOT
ATOM      1  O   UNL     1       2.241  -0.469   0.868  1.00  0.00    -0.420 OA
ENDROOT
BRANCH   1   2
ATOM      2  C   UNL     1       1.031  -1.166   0.799  1.00  0.00     0.167 A 
ATOM      3  C   UNL     1       0.903  -2.508   1.186  1.00  0.00     0.116 A 
ATOM      4  S   UNL     1      -0.694  -2.994   0.921  1.00  0.00    -0.109 S 
ATOM      5  C   UNL     1      -1.224  -1.504   0.338  1.00  0.00     0.119 A 
ATOM      6  C   UNL     1      -0.181  -0.605   0.343  1.00  0.00     0.119 A 
ATOM      7  N   UNL     1      -2.483  -1.167  -0.056  1.00  0.00    -0.277 N 
ATOM      8  C   UNL     1      -0.439   0.714  -0.033  1.00  0.00     0.271 A 
ATOM      9  C   UNL     1      -2.724   0.128  -0.464  1.00  0.00     0.193 A 
ATOM     10  N   UNL     1      -1.704   1.064  -0.438  1.00  0.00    -0.252 N 
ATOM     11  O   UNL     1       0.477   1.581   0.023  1.00  0.00    -0.268 OA
ATOM     12  S   UNL     1      -4.227   0.553  -1.018  1.00  0.00    -0.039 S 
BRANCH   3  13
ATOM     13  C   UNL     1       1.955  -3.400   1.718  1.00  0.00     0.173 C 
ATOM     14  C   UNL     1       3.353  -2.925   1.963  1.00  0.00     0.094 C 
ATOM     15  O   UNL     1       1.667  -4.600   1.976  1.00  0.00    -0.293 OA
ENDBRANCH   3  13
BRANCH   7  16
ATOM     16  C   UNL     1      -3.521  -2.164  -0.030  1.00  0.00     0.049 A 
ATOM     17  C   UNL     1      -4.483  -2.154   0.992  1.00  0.00     0.027 A 
ATOM     18  C   UNL     1      -3.570  -3.158  -1.020  1.00  0.00     0.027 A 
ATOM     19  C   UNL     1      -5.488  -3.126   1.019  1.00  0.00     0.002 A 
ATOM     20  C   UNL     1      -4.575  -4.129  -0.990  1.00  0.00     0.002 A 
ATOM     21  C   UNL     1      -5.534  -4.113   0.029  1.00  0.00     0.000 A 
ENDBRANCH   7  16
BRANCH  10  22
ATOM     22  C   UNL     1      -1.945   2.432  -0.826  1.00  0.00     0.052 A 
ATOM     23  C   UNL     1      -2.596   3.311   0.054  1.00  0.00     0.027 A 
ATOM     24  C   UNL     1      -1.520   2.893  -2.083  1.00  0.00     0.027 A 
ATOM     25  C   UNL     1      -2.824   4.638  -0.322  1.00  0.00     0.002 A 
ATOM     26  C   UNL     1      -1.750   4.221  -2.457  1.00  0.00     0.002 A 
ATOM     27  C   UNL     1      -2.401   5.093  -1.577  1.00  0.00     0.000 A 
ENDBRANCH  10  22
ENDBRANCH   1   2
BRANCH   1  28
ATOM     28  C   UNL     1       2.910   0.014  -0.264  1.00  0.00     0.345 C 
ATOM     29  O   UNL     1       2.465  -0.258  -1.413  1.00  0.00    -0.246 OA
BRANCH  28  30
ATOM     30  C   UNL     1       4.159   0.802  -0.092  1.00  0.00     0.079 A 
ATOM     31  C   UNL     1       4.743   0.856   1.191  1.00  0.00     0.019 A 
ATOM     32  C   UNL     1       4.793   1.497  -1.160  1.00  0.00     0.057 A 
ATOM     33  C   UNL     1       5.927   1.563   1.409  1.00  0.00     0.021 A 
ATOM     34  C   UNL     1       5.981   2.201  -0.924  1.00  0.00     0.042 A 
ATOM     35  C   UNL     1       6.549   2.232   0.353  1.00  0.00     0.042 A 
ATOM     36  Cl  UNL     1       4.147   1.551  -2.803  1.00  0.00    -0.083 Cl
ATOM     37  Cl  UNL     1       8.038   3.116   0.631  1.00  0.00    -0.084 Cl
ENDBRANCH  28  30
ENDBRANCH   1  28
TORSDOF 6
