REMARK SMILES C=C(O)C1=C(O)[C@]2(C)c3c(OC(C)=O)c(C)c(OC(C)=O)c(C(=C)O)c3O[C@@H]2CC1=O
REMARK SMILES IDX 4 1 5 2 7 3 8 4 9 5 10 6 15 7 16 8 17 9 22 10 26 11 27 12
REMARK SMILES IDX 28 13 29 14 30 15 31 16 2 17 1 18 3 19 6 21 11 23 12 24
REMARK SMILES IDX 13 25 14 26 23 27 24 28 25 29 18 31 19 32 20 33 21 34
REMARK H PARENT 3 20 6 22 25 30
ROOT
ATOM      1  C   UNL     1      -3.576   0.507   0.145  1.00  0.00     0.097 C 
ATOM      2  C   UNL     1      -2.544   0.336   1.003  1.00  0.00     0.121 C 
ATOM      3  C   UNL     1      -1.573  -0.843   0.901  1.00  0.00     0.095 C 
ATOM      4  C   UNL     1      -1.424  -1.485   2.297  1.00  0.00     0.029 C 
ATOM      5  C   UNL     1      -0.194  -0.481   0.396  1.00  0.00     0.055 A 
ATOM      6  C   UNL     1       0.634   0.611   0.697  1.00  0.00     0.145 A 
ATOM      7  C   UNL     1       1.961   0.620   0.192  1.00  0.00     0.036 A 
ATOM      8  C   UNL     1       2.911   1.739   0.542  1.00  0.00     0.052 C 
ATOM      9  C   UNL     1       2.412  -0.445  -0.631  1.00  0.00     0.152 A 
ATOM     10  C   UNL     1       1.539  -1.513  -0.958  1.00  0.00     0.101 A 
ATOM     11  C   UNL     1       0.254  -1.497  -0.411  1.00  0.00     0.142 A 
ATOM     12  O   UNL     1      -0.734  -2.437  -0.630  1.00  0.00    -0.487 OA
ATOM     13  C   UNL     1      -1.979  -1.960  -0.127  1.00  0.00     0.199 C 
ATOM     14  C   UNL     1      -2.782  -1.434  -1.326  1.00  0.00     0.128 C 
ATOM     15  C   UNL     1      -3.851  -0.492  -0.901  1.00  0.00     0.173 C 
ATOM     16  O   UNL     1      -4.957  -0.495  -1.505  1.00  0.00    -0.294 OA
ENDROOT
BRANCH   1  17
ATOM     17  C   UNL     1      -4.477   1.679   0.246  1.00  0.00     0.122 C 
ATOM     18  C   UNL     1      -4.014   2.910   0.030  1.00  0.00     0.059 C 
BRANCH  17  19
ATOM     19  O   UNL     1      -5.825   1.506   0.563  1.00  0.00    -0.508 OA
ATOM     20  H   UNL     1      -6.216   0.586   0.729  1.00  0.00     0.293 HD
ENDBRANCH  17  19
ENDBRANCH   1  17
BRANCH   2  21
ATOM     21  O   UNL     1      -2.373   1.206   2.089  1.00  0.00    -0.510 OA
ATOM     22  H   UNL     1      -2.997   1.970   2.313  1.00  0.00     0.293 HD
ENDBRANCH   2  21
BRANCH   6  23
ATOM     23  O   UNL     1       0.155   1.653   1.496  1.00  0.00    -0.426 OA
BRANCH  23  24
ATOM     24  C   UNL     1       0.009   2.965   1.034  1.00  0.00     0.308 C 
ATOM     25  C   UNL     1      -0.409   4.035   1.984  1.00  0.00     0.139 C 
ATOM     26  O   UNL     1       0.171   3.240  -0.185  1.00  0.00    -0.252 OA
ENDBRANCH  23  24
ENDBRANCH   6  23
BRANCH  10  27
ATOM     27  C   UNL     1       1.928  -2.625  -1.857  1.00  0.00     0.123 C 
ATOM     28  C   UNL     1       2.555  -2.400  -3.014  1.00  0.00     0.059 C 
BRANCH  27  29
ATOM     29  O   UNL     1       1.596  -3.930  -1.488  1.00  0.00    -0.508 OA
ATOM     30  H   UNL     1       1.808  -4.728  -2.079  1.00  0.00     0.293 HD
ENDBRANCH  27  29
ENDBRANCH  10  27
BRANCH   9  31
ATOM     31  O   UNL     1       3.730  -0.424  -1.106  1.00  0.00    -0.425 OA
BRANCH  31  32
ATOM     32  C   UNL     1       4.695  -1.359  -0.720  1.00  0.00     0.308 C 
ATOM     33  C   UNL     1       6.054  -1.295  -1.325  1.00  0.00     0.139 C 
ATOM     34  O   UNL     1       4.455  -2.197   0.191  1.00  0.00    -0.252 OA
ENDBRANCH  31  32
ENDBRANCH   9  31
TORSDOF 9
