REMARK SMILES Cn1ncc2c(=Nc3ccccc3Cl)nc(Nc3ccccc3Cl)[nH]c21
REMARK SMILES IDX 25 1 16 2 15 3 6 4 5 5 4 6 3 7 2 8 1 9 26 10 17 12 18 14
REMARK SMILES IDX 19 15 23 16 20 17 22 18 21 19 24 20 7 21 8 22 9 23 13 24
REMARK SMILES IDX 10 25 12 26 11 27 14 28
REMARK H PARENT 25 11 17 13
ROOT
ATOM      1  N   UNL     1      -1.008   1.252  -0.130  1.00  0.00    -0.310 N 
ATOM      2  C   UNL     1      -0.522   0.037   0.286  1.00  0.00     0.208 A 
ATOM      3  N   UNL     1       0.830  -0.202   0.269  1.00  0.00    -0.194 NA
ATOM      4  C   UNL     1       1.726   0.733  -0.173  1.00  0.00     0.169 A 
ATOM      5  C   UNL     1       1.214   1.943  -0.619  1.00  0.00     0.082 A 
ATOM      6  C   UNL     1       1.775   3.098  -1.127  1.00  0.00     0.149 A 
ATOM      7  N   UNL     1       0.774   3.981  -1.379  1.00  0.00    -0.179 NA
ATOM      8  N   UNL     1      -0.379   3.409  -1.044  1.00  0.00    -0.252 N 
ATOM      9  C   UNL     1      -1.682   4.050  -1.169  1.00  0.00     0.176 C 
ATOM     10  C   UNL     1      -0.121   2.174  -0.584  1.00  0.00     0.141 A 
ATOM     11  H   UNL     1      -2.025   1.478  -0.084  1.00  0.00     0.171 HD
ENDROOT
BRANCH   2  12
ATOM     12  N   UNL     1      -1.403  -0.979   0.788  1.00  0.00    -0.324 N 
ATOM     13  H   UNL     1      -0.997  -1.695   1.431  1.00  0.00     0.170 HD
BRANCH  12  14
ATOM     14  C   UNL     1      -2.788  -1.092   0.421  1.00  0.00     0.060 A 
ATOM     15  C   UNL     1      -3.199  -0.842  -0.901  1.00  0.00     0.028 A 
ATOM     16  C   UNL     1      -3.742  -1.517   1.368  1.00  0.00     0.064 A 
ATOM     17  C   UNL     1      -4.541  -0.983  -1.264  1.00  0.00     0.002 A 
ATOM     18  C   UNL     1      -5.085  -1.656   0.995  1.00  0.00     0.023 A 
ATOM     19  C   UNL     1      -5.483  -1.387  -0.317  1.00  0.00     0.002 A 
ATOM     20  Cl  UNL     1      -3.289  -1.848   3.035  1.00  0.00    -0.082 Cl
ENDBRANCH  12  14
ENDBRANCH   2  12
BRANCH   4  21
ATOM     21  N   UNL     1       3.005   0.498  -0.218  1.00  0.00    -0.227 NA
BRANCH  21  22
ATOM     22  C   UNL     1       3.680  -0.684   0.247  1.00  0.00     0.084 A 
ATOM     23  C   UNL     1       3.296  -1.333   1.437  1.00  0.00     0.030 A 
ATOM     24  C   UNL     1       4.803  -1.154  -0.457  1.00  0.00     0.066 A 
ATOM     25  C   UNL     1       3.992  -2.461   1.883  1.00  0.00     0.002 A 
ATOM     26  C   UNL     1       5.495  -2.285  -0.004  1.00  0.00     0.023 A 
ATOM     27  C   UNL     1       5.086  -2.939   1.160  1.00  0.00     0.002 A 
ATOM     28  Cl  UNL     1       5.347  -0.350  -1.923  1.00  0.00    -0.082 Cl
ENDBRANCH  21  22
ENDBRANCH   4  21
TORSDOF 4
