REMARK SMILES Oc1cc(-n2cccn2)c(O)cc1-n1cccn1
REMARK SMILES IDX 2 1 3 2 4 3 10 4 12 5 13 6 1 7 14 9 15 10 18 11 16 12 17 13
REMARK SMILES IDX 5 14 6 15 9 16 7 17 8 18 11 19
REMARK H PARENT 1 8 11 20
ROOT
ATOM      1  C   UNL     1       0.748  -0.407  -1.117  1.00  0.00     0.143 A 
ATOM      2  C   UNL     1      -0.651  -0.343  -1.185  1.00  0.00     0.080 A 
ATOM      3  C   UNL     1      -1.413   0.061  -0.076  1.00  0.00     0.110 A 
ATOM      4  C   UNL     1      -0.748   0.407   1.117  1.00  0.00     0.143 A 
ATOM      5  C   UNL     1       0.651   0.343   1.185  1.00  0.00     0.080 A 
ATOM      6  C   UNL     1       1.413  -0.061   0.076  1.00  0.00     0.110 A 
ENDROOT
BRANCH   1   7
ATOM      7  O   UNL     1       1.472  -0.835  -2.229  1.00  0.00    -0.506 OA
ATOM      8  H   UNL     1       1.015  -1.094  -3.096  1.00  0.00     0.293 HD
ENDBRANCH   1   7
BRANCH   6   9
ATOM      9  N   UNL     1       2.852  -0.107   0.161  1.00  0.00    -0.237 N 
ATOM     10  C   UNL     1       3.587  -0.297   1.277  1.00  0.00     0.115 A 
ATOM     11  N   UNL     1       3.663   0.043  -0.877  1.00  0.00    -0.176 NA
ATOM     12  C   UNL     1       4.921  -0.267   0.934  1.00  0.00     0.042 A 
ATOM     13  C   UNL     1       4.929  -0.051  -0.429  1.00  0.00     0.135 A 
ENDBRANCH   6   9
BRANCH   3  14
ATOM     14  N   UNL     1      -2.852   0.107  -0.161  1.00  0.00    -0.237 N 
ATOM     15  C   UNL     1      -3.587   0.297  -1.277  1.00  0.00     0.115 A 
ATOM     16  N   UNL     1      -3.663  -0.043   0.877  1.00  0.00    -0.176 NA
ATOM     17  C   UNL     1      -4.921   0.267  -0.934  1.00  0.00     0.042 A 
ATOM     18  C   UNL     1      -4.929   0.051   0.429  1.00  0.00     0.135 A 
ENDBRANCH   3  14
BRANCH   4  19
ATOM     19  O   UNL     1      -1.472   0.835   2.229  1.00  0.00    -0.506 OA
ATOM     20  H   UNL     1      -1.015   1.094   3.096  1.00  0.00     0.293 HD
ENDBRANCH   4  19
TORSDOF 4
