REMARK SMILES Cc1ccc2c(c1)c1ccc3c(c1n2C)C(=O)C=CC3=O
REMARK SMILES IDX 1 1 2 2 3 3 4 4 5 5 6 6 7 7 8 8 9 9 10 10 11 11 12 12 13 13
REMARK SMILES IDX 14 14 15 15 16 16 17 17 18 18 19 19 20 20 21 21
REMARK H PARENT
ROOT
ATOM      1  C   UNL     1      -5.016   1.533  -0.047  1.00  0.00     0.044 C 
ATOM      2  C   UNL     1      -3.743   0.751   0.080  1.00  0.00    -0.050 A 
ATOM      3  C   UNL     1      -3.788  -0.636   0.362  1.00  0.00     0.005 A 
ATOM      4  C   UNL     1      -2.605  -1.392   0.441  1.00  0.00     0.027 A 
ATOM      5  C   UNL     1      -1.385  -0.739   0.232  1.00  0.00     0.049 A 
ATOM      6  C   UNL     1      -1.347   0.607  -0.050  1.00  0.00     0.008 A 
ATOM      7  C   UNL     1      -2.503   1.381  -0.149  1.00  0.00     0.014 A 
ATOM      8  C   UNL     1      -0.025   0.924  -0.241  1.00  0.00     0.008 A 
ATOM      9  C   UNL     1       0.557   2.117  -0.655  1.00  0.00     0.012 A 
ATOM     10  C   UNL     1       1.938   2.133  -0.875  1.00  0.00     0.014 A 
ATOM     11  C   UNL     1       2.725   0.985  -0.618  1.00  0.00     0.035 A 
ATOM     12  C   UNL     1       2.124  -0.204  -0.117  1.00  0.00     0.057 A 
ATOM     13  C   UNL     1       0.708  -0.234  -0.024  1.00  0.00     0.061 A 
ATOM     14  N   UNL     1      -0.139  -1.280   0.216  1.00  0.00    -0.343 N 
ATOM     15  C   UNL     1       0.149  -2.717   0.200  1.00  0.00     0.150 C 
ATOM     16  C   UNL     1       3.034  -1.266   0.392  1.00  0.00     0.188 C 
ATOM     17  O   UNL     1       2.649  -2.106   1.246  1.00  0.00    -0.289 OA
ATOM     18  C   UNL     1       4.458  -1.251   0.016  1.00  0.00     0.057 C 
ATOM     19  C   UNL     1       5.000  -0.182  -0.571  1.00  0.00     0.056 C 
ATOM     20  C   UNL     1       4.188   1.010  -0.863  1.00  0.00     0.186 C 
ATOM     21  O   UNL     1       4.746   2.038  -1.332  1.00  0.00    -0.289 OA
ENDROOT
TORSDOF 0
