REMARK SMILES Cn1c(=O)c2[nH]c(CNc3ccc(C(=O)[O-])cc3)nc2n(C)c1=O
REMARK SMILES IDX 9 1 10 3 13 4 12 5 17 6 11 7 18 8 14 9 15 10 16 11 8 12 7 13
REMARK SMILES IDX 6 14 19 15 5 16 20 17 3 18 21 19 2 20 23 21 4 23 22 24 1 25
REMARK SMILES IDX 24 26
REMARK H PARENT 9 2 6 22
ROOT
ATOM      1  N   UNL     1       1.674   0.029  -0.170  1.00  0.00    -0.378 N 
ATOM      2  H   UNL     1       1.176   0.865  -0.554  1.00  0.00     0.161 HD
ENDROOT
BRANCH   1   3
ATOM      3  C   UNL     1       3.112   0.001  -0.252  1.00  0.00     0.034 A 
ATOM      4  C   UNL     1       5.931   0.003  -0.441  1.00  0.00    -0.003 A 
ATOM      5  C   UNL     1       5.257  -1.081   0.146  1.00  0.00     0.012 A 
ATOM      6  C   UNL     1       5.182   1.085  -0.932  1.00  0.00     0.012 A 
ATOM      7  C   UNL     1       3.862  -1.083   0.240  1.00  0.00     0.026 A 
ATOM      8  C   UNL     1       3.787   1.082  -0.838  1.00  0.00     0.026 A 
BRANCH   4   9
ATOM      9  C   UNL     1       7.408   0.000  -0.538  1.00  0.00     0.071 C 
ATOM     10  O   UNL     1       8.017   0.970  -1.063  1.00  0.00    -0.545 OA
ATOM     11  O   UNL     1       8.144  -1.073  -0.050  1.00  0.00    -0.545 OA
ENDBRANCH   4   9
ENDBRANCH   1   3
BRANCH   1  12
ATOM     12  C   UNL     1       0.883  -1.052   0.421  1.00  0.00     0.188 C 
BRANCH  12  13
ATOM     13  C   UNL     1      -0.578  -0.734   0.354  1.00  0.00     0.128 A 
ATOM     14  N   UNL     1      -1.343  -0.983  -0.737  1.00  0.00    -0.335 N 
ATOM     15  N   UNL     1      -1.242  -0.096   1.355  1.00  0.00    -0.213 NA
ATOM     16  C   UNL     1      -2.542  -0.493  -0.398  1.00  0.00     0.150 A 
ATOM     17  C   UNL     1      -2.482   0.031   0.845  1.00  0.00     0.168 A 
ATOM     18  C   UNL     1      -3.717  -0.455  -1.126  1.00  0.00     0.281 A 
ATOM     19  N   UNL     1      -3.564   0.597   1.446  1.00  0.00    -0.279 N 
ATOM     20  N   UNL     1      -4.816   0.147  -0.556  1.00  0.00    -0.261 N 
ATOM     21  C   UNL     1      -4.741   0.659   0.730  1.00  0.00     0.332 A 
ATOM     22  H   UNL     1      -1.060  -1.436  -1.635  1.00  0.00     0.168 HD
ATOM     23  O   UNL     1      -3.766  -0.963  -2.280  1.00  0.00    -0.267 OA
ATOM     24  C   UNL     1      -3.460   1.181   2.790  1.00  0.00     0.157 C 
ATOM     25  C   UNL     1      -6.094   0.188  -1.288  1.00  0.00     0.159 C 
ATOM     26  O   UNL     1      -5.761   1.189   1.255  1.00  0.00    -0.247 OA
ENDBRANCH  12  13
ENDBRANCH   1  12
TORSDOF 4
