REMARK SMILES O=C(Nc1ccc(C2=[NH+]CCN2)cc1)c1ccc(C(=O)Nc2ccc(C3=[NH+]CCN3)cc2)c(Cl)c1
REMARK SMILES IDX 18 1 17 2 33 3 16 4 35 5 34 6 15 7 19 8 21 9 20 11 22 12
REMARK SMILES IDX 25 13 24 14 31 15 23 16 32 17 26 18 27 19 28 20 30 21 29 22
REMARK SMILES IDX 2 25 3 26 1 27 4 29 5 30 14 31 6 32 13 33 7 34 8 35 9 36
REMARK SMILES IDX 12 37 10 38 11 39
REMARK H PARENT 21 10 27 23 30 24 3 28 9 40 12 41
ROOT
ATOM      1  C   UNL     1       1.403   0.317   0.694  1.00  0.00     0.058 A 
ATOM      2  C   UNL     1       0.516  -0.049   1.719  1.00  0.00     0.016 A 
ATOM      3  C   UNL     1       0.878   0.802  -0.524  1.00  0.00     0.054 A 
ATOM      4  C   UNL     1      -0.866   0.028   1.530  1.00  0.00     0.015 A 
ATOM      5  C   UNL     1      -0.508   0.878  -0.706  1.00  0.00     0.035 A 
ATOM      6  Cl  UNL     1       1.911   1.405  -1.818  1.00  0.00    -0.083 Cl
ATOM      7  C   UNL     1      -1.393   0.478   0.309  1.00  0.00     0.041 A 
ENDROOT
BRANCH   1   8
ATOM      8  C   UNL     1       2.859   0.200   0.932  1.00  0.00     0.257 C 
ATOM      9  N   UNL     1       3.726  -0.322  -0.087  1.00  0.00    -0.322 N 
ATOM     10  H   UNL     1       3.301  -0.934  -0.820  1.00  0.00     0.170 HD
ATOM     11  O   UNL     1       3.324   0.487   2.069  1.00  0.00    -0.269 OA
BRANCH   9  12
ATOM     12  C   UNL     1       5.154  -0.153  -0.090  1.00  0.00     0.041 A 
ATOM     13  C   UNL     1       7.959   0.164  -0.176  1.00  0.00     0.063 A 
ATOM     14  C   UNL     1       7.147   1.147   0.414  1.00  0.00     0.019 A 
ATOM     15  C   UNL     1       7.350  -0.975  -0.733  1.00  0.00     0.019 A 
ATOM     16  C   UNL     1       5.758   0.995   0.450  1.00  0.00     0.027 A 
ATOM     17  C   UNL     1       5.961  -1.126  -0.696  1.00  0.00     0.027 A 
BRANCH  13  18
ATOM     18  C   UNL     1       9.433   0.334  -0.206  1.00  0.00     0.275 C 
ATOM     19  N   UNL     1      10.198  -0.198  -1.098  1.00  0.00    -0.270 N 
ATOM     20  C   UNL     1      11.589   0.165  -0.863  1.00  0.00     0.279 C 
ATOM     21  N   UNL     1      10.146   1.111   0.740  1.00  0.00    -0.270 N 
ATOM     22  C   UNL     1      11.555   1.043   0.398  1.00  0.00     0.279 C 
ATOM     23  H   UNL     1       9.877  -0.780  -1.903  1.00  0.00     0.305 HD
ATOM     24  H   UNL     1       9.753   1.583   1.583  1.00  0.00     0.305 HD
ENDBRANCH  13  18
ENDBRANCH   9  12
ENDBRANCH   1   8
BRANCH   7  25
ATOM     25  C   UNL     1      -2.857   0.573   0.087  1.00  0.00     0.255 C 
ATOM     26  N   UNL     1      -3.772  -0.324   0.746  1.00  0.00    -0.322 N 
ATOM     27  O   UNL     1      -3.299   1.464  -0.688  1.00  0.00    -0.269 OA
ATOM     28  H   UNL     1      -3.413  -0.968   1.484  1.00  0.00     0.170 HD
BRANCH  26  29
ATOM     29  C   UNL     1      -5.188  -0.347   0.498  1.00  0.00     0.041 A 
ATOM     30  C   UNL     1      -5.709  -0.192  -0.798  1.00  0.00     0.027 A 
ATOM     31  C   UNL     1      -6.067  -0.595   1.560  1.00  0.00     0.027 A 
ATOM     32  C   UNL     1      -7.088  -0.246  -1.017  1.00  0.00     0.019 A 
ATOM     33  C   UNL     1      -7.447  -0.647   1.343  1.00  0.00     0.019 A 
ATOM     34  C   UNL     1      -7.973  -0.472   0.052  1.00  0.00     0.063 A 
BRANCH  34  35
ATOM     35  C   UNL     1      -9.439  -0.526  -0.168  1.00  0.00     0.275 C 
ATOM     36  N   UNL     1      -9.985  -0.873  -1.285  1.00  0.00    -0.270 N 
ATOM     37  N   UNL     1     -10.390  -0.216   0.835  1.00  0.00    -0.270 N 
ATOM     38  C   UNL     1     -11.437  -0.841  -1.179  1.00  0.00     0.279 C 
ATOM     39  C   UNL     1     -11.712  -0.379   0.260  1.00  0.00     0.279 C 
ATOM     40  H   UNL     1      -9.471  -1.172  -2.143  1.00  0.00     0.305 HD
ATOM     41  H   UNL     1     -10.190   0.144   1.794  1.00  0.00     0.305 HD
ENDBRANCH  34  35
ENDBRANCH  26  29
ENDBRANCH   7  25
TORSDOF 6
