REMARK SMILES CCN(CC)c1nc(=Nc2ccc3cc(-c4ccccc4)c(=O)oc3c2)nc(Cl)[nH]1
REMARK SMILES IDX 30 1 28 2 29 3 27 4 8 5 7 6 6 7 3 9 2 10 1 11 4 12 5 13 9 14
REMARK SMILES IDX 10 15 11 16 26 17 12 18 25 19 13 20 24 21 14 22 22 23 15 24
REMARK SMILES IDX 23 25 16 26 17 27 21 28 18 29 20 30 19 31
REMARK H PARENT 30 8
ROOT
ATOM      1  N   UNL     1       4.071  -0.565   1.681  1.00  0.00    -0.300 N 
ATOM      2  C   UNL     1       2.753  -0.825   1.886  1.00  0.00     0.206 A 
ATOM      3  Cl  UNL     1       2.217  -1.547   3.391  1.00  0.00    -0.043 Cl
ATOM      4  N   UNL     1       1.844  -0.531   0.925  1.00  0.00    -0.182 NA
ATOM      5  C   UNL     1       2.241   0.034  -0.244  1.00  0.00     0.255 A 
ATOM      6  N   UNL     1       3.558   0.287  -0.447  1.00  0.00    -0.176 NA
ATOM      7  C   UNL     1       4.483  -0.007   0.505  1.00  0.00     0.208 A 
ATOM      8  H   UNL     1       4.746  -0.790   2.442  1.00  0.00     0.172 HD
ENDROOT
BRANCH   7   9
ATOM      9  N   UNL     1       5.882   0.266   0.251  1.00  0.00    -0.343 N 
BRANCH   9  10
ATOM     10  C   UNL     1       6.246   1.306  -0.726  1.00  0.00     0.116 C 
ATOM     11  C   UNL     1       6.019   2.692  -0.133  1.00  0.00     0.027 C 
ENDBRANCH   9  10
BRANCH   9  12
ATOM     12  C   UNL     1       6.949  -0.505   0.913  1.00  0.00     0.116 C 
ATOM     13  C   UNL     1       6.893  -1.974   0.503  1.00  0.00     0.027 C 
ENDBRANCH   9  12
ENDBRANCH   7   9
BRANCH   5  14
ATOM     14  N   UNL     1       1.391   0.289  -1.194  1.00  0.00    -0.211 NA
BRANCH  14  15
ATOM     15  C   UNL     1      -0.035   0.120  -1.131  1.00  0.00     0.071 A 
ATOM     16  C   UNL     1      -0.707  -0.366  -2.260  1.00  0.00     0.029 A 
ATOM     17  C   UNL     1      -0.775   0.503   0.004  1.00  0.00     0.076 A 
ATOM     18  C   UNL     1      -2.096  -0.522  -2.249  1.00  0.00     0.014 A 
ATOM     19  C   UNL     1      -2.167   0.358   0.019  1.00  0.00     0.140 A 
ATOM     20  C   UNL     1      -2.830  -0.165  -1.109  1.00  0.00     0.018 A 
ATOM     21  O   UNL     1      -2.859   0.722   1.094  1.00  0.00    -0.422 OA
ATOM     22  C   UNL     1      -4.220  -0.305  -1.061  1.00  0.00     0.028 A 
ATOM     23  C   UNL     1      -4.183   0.608   1.172  1.00  0.00     0.344 A 
ATOM     24  C   UNL     1      -4.920   0.076   0.093  1.00  0.00     0.068 A 
ATOM     25  O   UNL     1      -4.766   1.002   2.218  1.00  0.00    -0.246 OA
BRANCH  24  26
ATOM     26  C   UNL     1      -6.397  -0.077   0.148  1.00  0.00    -0.011 A 
ATOM     27  C   UNL     1      -7.196   0.354  -0.927  1.00  0.00     0.009 A 
ATOM     28  C   UNL     1      -7.016  -0.669   1.264  1.00  0.00     0.009 A 
ATOM     29  C   UNL     1      -8.586   0.206  -0.878  1.00  0.00     0.001 A 
ATOM     30  C   UNL     1      -8.406  -0.815   1.308  1.00  0.00     0.001 A 
ATOM     31  C   UNL     1      -9.190  -0.376   0.239  1.00  0.00     0.000 A 
ENDBRANCH  24  26
ENDBRANCH  14  15
ENDBRANCH   5  14
TORSDOF 6
