REMARK SMILES Cc1ccc(NC(=O)N2CCCCC2)cc1NC(=O)N1CCCCC1
REMARK SMILES IDX 1 1 2 2 3 3 4 4 5 5 15 6 16 7 17 8 18 9 20 10 21 11 25 12
REMARK SMILES IDX 22 13 24 14 23 15 19 17 6 18 7 19 9 20 10 21 14 22 11 23
REMARK SMILES IDX 13 24 12 25 8 27
REMARK H PARENT 17 16 6 26
ROOT
ATOM      1  C   UNL     1       1.927  -4.301  -2.462  1.00  0.00     0.046 C 
ATOM      2  C   UNL     1       0.739  -3.547  -1.928  1.00  0.00    -0.027 A 
ATOM      3  C   UNL     1       0.880  -2.187  -1.611  1.00  0.00     0.008 A 
ATOM      4  C   UNL     1      -0.193  -1.465  -1.084  1.00  0.00     0.026 A 
ATOM      5  C   UNL     1      -1.423  -2.090  -0.849  1.00  0.00     0.044 A 
ATOM      6  C   UNL     1      -1.581  -3.443  -1.194  1.00  0.00     0.052 A 
ATOM      7  C   UNL     1      -0.520  -4.169  -1.755  1.00  0.00     0.047 A 
ENDROOT
BRANCH   7   8
ATOM      8  N   UNL     1      -0.740  -5.537  -2.128  1.00  0.00    -0.307 N 
ATOM      9  C   UNL     1      -0.586  -5.993  -3.481  1.00  0.00     0.321 C 
ATOM     10  N   UNL     1      -0.583  -7.402  -3.786  1.00  0.00    -0.325 N 
ATOM     11  C   UNL     1      -1.154  -7.878  -5.055  1.00  0.00     0.121 C 
ATOM     12  C   UNL     1      -0.294  -8.392  -2.738  1.00  0.00     0.121 C 
ATOM     13  C   UNL     1      -0.324  -9.033  -5.618  1.00  0.00     0.022 C 
ATOM     14  C   UNL     1       0.525  -9.555  -3.307  1.00  0.00     0.022 C 
ATOM     15  C   UNL     1      -0.133 -10.128  -4.565  1.00  0.00     0.004 C 
ATOM     16  H   UNL     1      -1.249  -6.152  -1.453  1.00  0.00     0.171 HD
ATOM     17  O   UNL     1      -0.476  -5.151  -4.414  1.00  0.00    -0.248 OA
ENDBRANCH   7   8
BRANCH   5  18
ATOM     18  N   UNL     1      -2.521  -1.319  -0.332  1.00  0.00    -0.308 N 
ATOM     19  C   UNL     1      -3.570  -1.873   0.478  1.00  0.00     0.321 C 
ATOM     20  N   UNL     1      -4.859  -1.231   0.545  1.00  0.00    -0.325 N 
ATOM     21  C   UNL     1      -5.355  -0.400  -0.561  1.00  0.00     0.121 C 
ATOM     22  C   UNL     1      -5.715  -1.372   1.731  1.00  0.00     0.121 C 
ATOM     23  C   UNL     1      -6.747  -0.877  -0.987  1.00  0.00     0.022 C 
ATOM     24  C   UNL     1      -7.105  -1.864   1.315  1.00  0.00     0.022 C 
ATOM     25  C   UNL     1      -7.693  -0.967   0.218  1.00  0.00     0.004 C 
ATOM     26  H   UNL     1      -2.521  -0.286  -0.495  1.00  0.00     0.171 HD
ATOM     27  O   UNL     1      -3.350  -2.910   1.160  1.00  0.00    -0.248 OA
ENDBRANCH   5  18
TORSDOF 2
