REMARK SMILES C#CCCOC(=O)Nc1ccccc1
REMARK SMILES IDX 4 1 3 2 2 3 1 4 5 5 6 6 8 7 7 8 9 10 10 11 14 12 11 13 13 14
REMARK SMILES IDX 12 15
REMARK H PARENT 8 9
ROOT
ATOM      1  C   UNL     1      -2.919  -0.626   0.801  1.00  0.00     0.248 C 
ENDROOT
BRANCH   1   2
ATOM      2  C   UNL     1      -4.250  -0.740   0.063  1.00  0.00     0.131 C 
BRANCH   2   3
ATOM      3  C   UNL     1      -4.515   0.466  -0.730  1.00  0.00    -0.103 C 
ATOM      4  C   UNL     1      -4.732   1.456  -1.383  1.00  0.00     0.004 C 
ENDBRANCH   2   3
ENDBRANCH   1   2
BRANCH   1   5
ATOM      5  O   UNL     1      -1.847  -0.544  -0.135  1.00  0.00    -0.448 OA
BRANCH   5   6
ATOM      6  C   UNL     1      -0.511  -0.428   0.257  1.00  0.00     0.411 C 
ATOM      7  N   UNL     1       0.507  -0.364  -0.751  1.00  0.00    -0.291 N 
ATOM      8  O   UNL     1      -0.205  -0.419   1.481  1.00  0.00    -0.224 OA
ATOM      9  H   UNL     1       0.235  -0.637  -1.722  1.00  0.00     0.173 HD
BRANCH   7  10
ATOM     10  C   UNL     1       1.889  -0.065  -0.490  1.00  0.00     0.044 A 
ATOM     11  C   UNL     1       2.883  -0.652  -1.289  1.00  0.00     0.026 A 
ATOM     12  C   UNL     1       2.268   0.852   0.510  1.00  0.00     0.026 A 
ATOM     13  C   UNL     1       4.233  -0.360  -1.070  1.00  0.00     0.002 A 
ATOM     14  C   UNL     1       3.619   1.143   0.725  1.00  0.00     0.002 A 
ATOM     15  C   UNL     1       4.601   0.534  -0.061  1.00  0.00     0.000 A 
ENDBRANCH   7  10
ENDBRANCH   5   6
ENDBRANCH   1   5
TORSDOF 5
