REMARK SMILES Nc1cnc(=Nc2ccc(Br)cc2)[nH]c1N
REMARK SMILES IDX 14 1 15 2 2 3 3 4 4 5 5 6 16 8 6 11 7 12 8 13 13 14 9 15
REMARK SMILES IDX 12 16 10 17 11 18 1 19
REMARK H PARENT 14 7 16 9 16 10 1 20 1 21
ROOT
ATOM      1  N   UNL     1       1.675   0.417  -1.143  1.00  0.00    -0.309 N 
ATOM      2  C   UNL     1       2.845  -0.127  -0.700  1.00  0.00     0.128 A 
ATOM      3  C   UNL     1       2.831  -0.959   0.441  1.00  0.00     0.091 A 
ATOM      4  C   UNL     1       1.608  -1.169   1.085  1.00  0.00     0.144 A 
ATOM      5  N   UNL     1       0.476  -0.597   0.607  1.00  0.00    -0.219 NA
ATOM      6  C   UNL     1       0.497   0.199  -0.496  1.00  0.00     0.228 A 
ATOM      7  H   UNL     1       1.683   1.027  -1.993  1.00  0.00     0.171 HD
ENDROOT
BRANCH   2   8
ATOM      8  N   UNL     1       4.059   0.181  -1.398  1.00  0.00    -0.383 N 
ATOM      9  H   UNL     1       5.003  -0.047  -1.020  1.00  0.00     0.158 HD
ATOM     10  H   UNL     1       4.026   0.733  -2.283  1.00  0.00     0.158 HD
ENDBRANCH   2   8
BRANCH   6  11
ATOM     11  N   UNL     1      -0.598   0.725  -0.966  1.00  0.00    -0.213 NA
BRANCH  11  12
ATOM     12  C   UNL     1      -1.913   0.645  -0.390  1.00  0.00     0.067 A 
ATOM     13  C   UNL     1      -3.019   0.570  -1.247  1.00  0.00     0.029 A 
ATOM     14  C   UNL     1      -2.127   0.727   1.000  1.00  0.00     0.029 A 
ATOM     15  C   UNL     1      -4.317   0.523  -0.728  1.00  0.00     0.018 A 
ATOM     16  C   UNL     1      -3.426   0.681   1.517  1.00  0.00     0.018 A 
ATOM     17  C   UNL     1      -4.521   0.574   0.654  1.00  0.00     0.018 A 
ATOM     18  Br  UNL     1      -6.294   0.515   1.362  1.00  0.00    -0.051 Br
ENDBRANCH  11  12
ENDBRANCH   6  11
BRANCH   3  19
ATOM     19  N   UNL     1       4.007  -1.610   0.942  1.00  0.00    -0.395 N 
ATOM     20  H   UNL     1       4.904  -1.639   0.414  1.00  0.00     0.156 HD
ATOM     21  H   UNL     1       3.966  -2.155   1.831  1.00  0.00     0.156 HD
ENDBRANCH   3  19
TORSDOF 4
