REMARK SMILES COc1cc([C@H]2NC(=O)C(C#N)=C(Nc3cccc(C)c3)S2)ccc1O
REMARK SMILES IDX 6 1 7 2 8 3 9 4 10 5 13 6 22 7 5 9 3 10 4 11 25 12 24 13
REMARK SMILES IDX 23 14 2 15 1 16 26 17 14 19 15 21 16 22 21 23 17 24 19 25
REMARK SMILES IDX 18 26 20 27 11 28 12 29
REMARK H PARENT 7 8 26 18 14 20
ROOT
ATOM      1  C   UNL     1      -1.373   0.023  -1.336  1.00  0.00     0.177 C 
ATOM      2  N   UNL     1      -1.213   1.475  -1.256  1.00  0.00    -0.335 N 
ATOM      3  C   UNL     1       0.089   2.061  -1.138  1.00  0.00     0.265 C 
ATOM      4  O   UNL     1       0.208   3.315  -1.174  1.00  0.00    -0.268 OA
ATOM      5  C   UNL     1       1.291   1.207  -1.020  1.00  0.00     0.147 C 
ATOM      6  C   UNL     1       1.186  -0.083  -0.635  1.00  0.00     0.099 C 
ATOM      7  S   UNL     1      -0.375  -0.747  -0.021  1.00  0.00    -0.077 SA
ATOM      8  H   UNL     1      -2.043   2.105  -1.345  1.00  0.00     0.165 HD
ENDROOT
BRANCH   1   9
ATOM      9  C   UNL     1      -2.822  -0.371  -1.170  1.00  0.00    -0.011 A 
ATOM     10  C   UNL     1      -4.897  -0.341   0.125  1.00  0.00     0.160 A 
ATOM     11  C   UNL     1      -3.548   0.034  -0.035  1.00  0.00     0.057 A 
ATOM     12  C   UNL     1      -5.513  -1.127  -0.858  1.00  0.00     0.157 A 
ATOM     13  C   UNL     1      -4.791  -1.535  -1.987  1.00  0.00     0.050 A 
ATOM     14  C   UNL     1      -3.454  -1.162  -2.142  1.00  0.00     0.011 A 
BRANCH  10  15
ATOM     15  O   UNL     1      -5.652   0.047   1.243  1.00  0.00    -0.493 OA
ATOM     16  C   UNL     1      -5.156   0.842   2.315  1.00  0.00     0.278 C 
ENDBRANCH  10  15
BRANCH  12  17
ATOM     17  O   UNL     1      -6.847  -1.500  -0.705  1.00  0.00    -0.504 OA
ATOM     18  H   UNL     1      -7.322  -2.068  -1.397  1.00  0.00     0.293 HD
ENDBRANCH  12  17
ENDBRANCH   1   9
BRANCH   6  19
ATOM     19  N   UNL     1       2.299  -0.986  -0.723  1.00  0.00    -0.349 N 
ATOM     20  H   UNL     1       2.152  -1.872  -1.257  1.00  0.00     0.167 HD
BRANCH  19  21
ATOM     21  C   UNL     1       3.521  -0.833   0.024  1.00  0.00     0.039 A 
ATOM     22  C   UNL     1       4.640  -1.602  -0.327  1.00  0.00     0.026 A 
ATOM     23  C   UNL     1       3.611   0.053   1.115  1.00  0.00     0.029 A 
ATOM     24  C   UNL     1       5.838  -1.470   0.378  1.00  0.00     0.002 A 
ATOM     25  C   UNL     1       4.810   0.174   1.836  1.00  0.00    -0.049 A 
ATOM     26  C   UNL     1       5.928  -0.580   1.450  1.00  0.00     0.003 A 
ATOM     27  C   UNL     1       4.913   1.154   2.967  1.00  0.00     0.044 C 
ENDBRANCH  19  21
ENDBRANCH   6  19
BRANCH   5  28
ATOM     28  C   UNL     1       2.555   1.747  -1.467  1.00  0.00     0.108 C 
ATOM     29  N   UNL     1       3.568   2.179  -1.825  1.00  0.00    -0.192 NA
ENDBRANCH   5  28
TORSDOF 6
