REMARK SMILES CC[C@H](CO)NC(=O)[C@H]1C=C2c3cccc4[nH]cc(c34)C[C@H]2[N@@H+](C)C1
REMARK SMILES IDX 3 1 6 2 7 3 8 4 9 6 22 7 23 8 21 9 11 10 25 11 19 12 10 13
REMARK SMILES IDX 12 14 18 15 20 16 13 17 17 18 16 19 14 20 15 21 24 22 2 25
REMARK SMILES IDX 1 26 4 27 5 28
REMARK H PARENT 6 5 23 23 17 24 5 29
ROOT
ATOM      1  C   UNL     1       3.763   1.423   0.399  1.00  0.00     0.107 C 
ENDROOT
BRANCH   1   2
ATOM      2  N   UNL     1       2.499   0.678   0.295  1.00  0.00    -0.350 N 
ATOM      3  C   UNL     1       2.252  -0.651   0.793  1.00  0.00     0.232 C 
ATOM      4  O   UNL     1       3.136  -1.275   1.437  1.00  0.00    -0.274 OA
ATOM      5  H   UNL     1       1.704   1.170  -0.172  1.00  0.00     0.163 HD
BRANCH   3   6
ATOM      6  C   UNL     1       0.929  -1.322   0.530  1.00  0.00     0.156 C 
ATOM      7  C   UNL     1      -1.643  -1.732  -0.459  1.00  0.00     0.219 C 
ATOM      8  N   UNL     1      -0.628  -1.479  -1.517  1.00  0.00    -0.330 N 
ATOM      9  C   UNL     1      -3.097  -1.890  -1.048  1.00  0.00     0.108 C 
ATOM     10  C   UNL     1      -1.459  -0.712   0.676  1.00  0.00     0.015 C 
ATOM     11  C   UNL     1       0.761  -1.640  -0.993  1.00  0.00     0.280 C 
ATOM     12  C   UNL     1      -4.021  -0.789  -0.636  1.00  0.00    -0.016 A 
ATOM     13  C   UNL     1      -0.205  -0.502   1.097  1.00  0.00     0.002 C 
ATOM     14  C   UNL     1      -2.595   0.144   1.119  1.00  0.00    -0.007 A 
ATOM     15  C   UNL     1      -5.345  -0.546  -0.990  1.00  0.00     0.087 A 
ATOM     16  C   UNL     1      -3.760   0.053   0.392  1.00  0.00     0.011 A 
ATOM     17  C   UNL     1      -2.587   1.072   2.190  1.00  0.00     0.009 A 
ATOM     18  N   UNL     1      -5.861   0.439  -0.209  1.00  0.00    -0.361 N 
ATOM     19  C   UNL     1      -4.875   0.790   0.638  1.00  0.00     0.046 A 
ATOM     20  C   UNL     1      -3.741   1.852   2.464  1.00  0.00     0.003 A 
ATOM     21  C   UNL     1      -4.907   1.714   1.680  1.00  0.00     0.027 A 
ATOM     22  C   UNL     1      -0.793  -0.152  -2.153  1.00  0.00     0.333 C 
ATOM     23  H   UNL     1      -0.757  -2.196  -2.270  1.00  0.00     0.348 HD
ATOM     24  H   UNL     1      -6.835   0.815  -0.235  1.00  0.00     0.166 HD
ENDBRANCH   3   6
ENDBRANCH   1   2
BRANCH   1  25
ATOM     25  C   UNL     1       4.764   1.022  -0.710  1.00  0.00     0.024 C 
ATOM     26  C   UNL     1       5.167  -0.453  -0.725  1.00  0.00     0.006 C 
ENDBRANCH   1  25
BRANCH   1  27
ATOM     27  C   UNL     1       4.357   1.393   1.823  1.00  0.00     0.180 C 
BRANCH  27  28
ATOM     28  O   UNL     1       5.361   2.363   1.959  1.00  0.00    -0.394 OA
ATOM     29  H   UNL     1       4.902   3.237   2.068  1.00  0.00     0.210 HD
ENDBRANCH  27  28
ENDBRANCH   1  27
TORSDOF 5
