REMARK SMILES N#Cc1c(C#N)c(O)c2ccccc2c1O
REMARK SMILES IDX 3 1 4 2 7 3 9 4 10 5 11 6 12 7 13 8 14 9 15 10 2 11 1 12
REMARK SMILES IDX 5 13 6 14 16 15 8 17
REMARK H PARENT 16 16 8 18
ROOT
ATOM      1  C   UNL     1      -1.952  -0.406   0.170  1.00  0.00     0.116 A 
ATOM      2  C   UNL     1      -1.750   0.970  -0.053  1.00  0.00     0.116 A 
ATOM      3  C   UNL     1      -0.443   1.474  -0.202  1.00  0.00     0.142 A 
ATOM      4  C   UNL     1       0.660   0.601  -0.129  1.00  0.00     0.029 A 
ATOM      5  C   UNL     1       1.968   1.101  -0.278  1.00  0.00     0.013 A 
ATOM      6  C   UNL     1       3.067   0.248  -0.207  1.00  0.00     0.001 A 
ATOM      7  C   UNL     1       2.881  -1.113   0.013  1.00  0.00     0.001 A 
ATOM      8  C   UNL     1       1.594  -1.633   0.164  1.00  0.00     0.013 A 
ATOM      9  C   UNL     1       0.461  -0.791   0.096  1.00  0.00     0.029 A 
ATOM     10  C   UNL     1      -0.861  -1.288   0.245  1.00  0.00     0.142 A 
ENDROOT
BRANCH   1  11
ATOM     11  C   UNL     1      -3.293  -0.932   0.324  1.00  0.00     0.105 C 
ATOM     12  N   UNL     1      -4.364  -1.353   0.448  1.00  0.00    -0.192 NA
ENDBRANCH   1  11
BRANCH   2  13
ATOM     13  C   UNL     1      -2.884   1.867  -0.129  1.00  0.00     0.105 C 
ATOM     14  N   UNL     1      -3.791   2.583  -0.189  1.00  0.00    -0.192 NA
ENDBRANCH   2  13
BRANCH  10  15
ATOM     15  O   UNL     1      -1.137  -2.644   0.469  1.00  0.00    -0.506 OA
ATOM     16  H   UNL     1      -0.446  -3.374   0.543  1.00  0.00     0.293 HD
ENDBRANCH  10  15
BRANCH   3  17
ATOM     17  O   UNL     1      -0.221   2.838  -0.424  1.00  0.00    -0.506 OA
ATOM     18  H   UNL     1      -0.967   3.520  -0.488  1.00  0.00     0.293 HD
ENDBRANCH   3  17
TORSDOF 4
