REMARK SMILES Cn1ncc2c(=NCc3ccccc3)nc[nH]c21
REMARK SMILES IDX 7 1 6 2 17 3 16 4 18 5 15 6 2 7 5 8 3 9 4 10 1 12 8 13 9 14
REMARK SMILES IDX 10 15 14 16 11 17 13 18 12 19
REMARK H PARENT 17 11
ROOT
ATOM      1  N   UNL     1       0.472   0.015  -0.165  1.00  0.00    -0.261 NA
ENDROOT
BRANCH   1   2
ATOM      2  C   UNL     1      -0.778   0.213  -0.459  1.00  0.00     0.162 A 
ATOM      3  N   UNL     1      -3.458   0.635  -1.069  1.00  0.00    -0.331 N 
ATOM      4  C   UNL     1      -2.495   0.754  -2.033  1.00  0.00     0.200 A 
ATOM      5  C   UNL     1      -3.065   0.307   0.188  1.00  0.00     0.140 A 
ATOM      6  N   UNL     1      -1.174   0.545  -1.727  1.00  0.00    -0.219 NA
ATOM      7  N   UNL     1      -3.834   0.139   1.277  1.00  0.00    -0.252 N 
ATOM      8  C   UNL     1      -1.765   0.096   0.510  1.00  0.00     0.081 A 
ATOM      9  N   UNL     1      -3.046  -0.178   2.300  1.00  0.00    -0.179 NA
ATOM     10  C   UNL     1      -1.764  -0.212   1.856  1.00  0.00     0.149 A 
ATOM     11  H   UNL     1      -4.464   0.794  -1.300  1.00  0.00     0.169 HD
ATOM     12  C   UNL     1      -5.282   0.272   1.362  1.00  0.00     0.176 C 
ENDBRANCH   1   2
BRANCH   1  13
ATOM     13  C   UNL     1       1.562   0.120  -1.129  1.00  0.00     0.180 C 
BRANCH  13  14
ATOM     14  C   UNL     1       2.863  -0.174  -0.440  1.00  0.00    -0.027 A 
ATOM     15  C   UNL     1       3.585   0.858   0.181  1.00  0.00     0.005 A 
ATOM     16  C   UNL     1       3.337  -1.494  -0.356  1.00  0.00     0.005 A 
ATOM     17  C   UNL     1       4.779   0.576   0.854  1.00  0.00     0.000 A 
ATOM     18  C   UNL     1       4.531  -1.771   0.318  1.00  0.00     0.000 A 
ATOM     19  C   UNL     1       5.252  -0.737   0.920  1.00  0.00     0.000 A 
ENDBRANCH  13  14
ENDBRANCH   1  13
TORSDOF 3
