REMARK SMILES CCOC(=O)C(O)=Cc1nc2ccccc2s1
REMARK SMILES IDX 4 1 5 2 6 3 7 4 8 6 9 7 10 8 17 9 11 10 16 11 12 12 15 13
REMARK SMILES IDX 13 14 14 15 3 16 2 17 1 18
REMARK H PARENT 7 5
ROOT
ATOM      1  C   UNL     1       2.862  -0.373   0.728  1.00  0.00     0.373 C 
ATOM      2  O   UNL     1       3.685  -1.189   1.224  1.00  0.00    -0.243 OA
ENDROOT
BRANCH   1   3
ATOM      3  C   UNL     1       1.420  -0.708   0.710  1.00  0.00     0.204 C 
BRANCH   3   4
ATOM      4  O   UNL     1       0.997  -1.923   1.248  1.00  0.00    -0.502 OA
ATOM      5  H   UNL     1       1.644  -2.589   1.653  1.00  0.00     0.293 HD
ENDBRANCH   3   4
BRANCH   3   6
ATOM      6  C   UNL     1       0.530   0.151   0.181  1.00  0.00     0.093 C 
BRANCH   6   7
ATOM      7  C   UNL     1      -0.929  -0.071   0.106  1.00  0.00     0.121 A 
ATOM      8  N   UNL     1      -1.759   0.849  -0.447  1.00  0.00    -0.237 NA
ATOM      9  S   UNL     1      -1.791  -1.429   0.661  1.00  0.00    -0.114 S 
ATOM     10  C   UNL     1      -3.053   0.440  -0.410  1.00  0.00     0.082 A 
ATOM     11  C   UNL     1      -3.264  -0.801   0.169  1.00  0.00     0.055 A 
ATOM     12  C   UNL     1      -4.129   1.178  -0.905  1.00  0.00     0.030 A 
ATOM     13  C   UNL     1      -4.535  -1.359   0.282  1.00  0.00     0.021 A 
ATOM     14  C   UNL     1      -5.423   0.638  -0.804  1.00  0.00     0.002 A 
ATOM     15  C   UNL     1      -5.625  -0.626  -0.213  1.00  0.00     0.002 A 
ENDBRANCH   6   7
ENDBRANCH   3   6
ENDBRANCH   1   3
BRANCH   1  16
ATOM     16  O   UNL     1       3.312   0.847   0.202  1.00  0.00    -0.460 OA
BRANCH  16  17
ATOM     17  C   UNL     1       4.688   1.216   0.136  1.00  0.00     0.230 C 
ATOM     18  C   UNL     1       5.389   0.477  -0.998  1.00  0.00     0.049 C 
ENDBRANCH  16  17
ENDBRANCH   1  16
TORSDOF 6
