REMARK SMILES Nc1cc(=Nc2ccc(Br)cc2)nc(N)[nH]1
REMARK SMILES IDX 16 1 2 2 3 3 4 4 13 5 14 6 1 8 15 11 5 14 6 15 7 16 12 17
REMARK SMILES IDX 8 18 11 19 9 20 10 21
REMARK H PARENT 16 7 1 9 1 10 15 12 15 13
ROOT
ATOM      1  N   UNL     1      -3.239   0.047   0.294  1.00  0.00    -0.313 N 
ATOM      2  C   UNL     1      -2.228   0.957   0.235  1.00  0.00     0.107 A 
ATOM      3  C   UNL     1      -0.904   0.518   0.129  1.00  0.00     0.093 A 
ATOM      4  C   UNL     1      -0.650  -0.865   0.075  1.00  0.00     0.160 A 
ATOM      5  N   UNL     1      -1.696  -1.727   0.157  1.00  0.00    -0.195 NA
ATOM      6  C   UNL     1      -2.978  -1.289   0.262  1.00  0.00     0.200 A 
ATOM      7  H   UNL     1      -4.227   0.377   0.375  1.00  0.00     0.171 HD
ENDROOT
BRANCH   2   8
ATOM      8  N   UNL     1      -2.518   2.356   0.290  1.00  0.00    -0.385 N 
ATOM      9  H   UNL     1      -3.504   2.691   0.373  1.00  0.00     0.158 HD
ATOM     10  H   UNL     1      -1.752   3.065   0.247  1.00  0.00     0.158 HD
ENDBRANCH   2   8
BRANCH   6  11
ATOM     11  N   UNL     1      -4.045  -2.235   0.338  1.00  0.00    -0.369 N 
ATOM     12  H   UNL     1      -5.036  -1.916   0.419  1.00  0.00     0.159 HD
ATOM     13  H   UNL     1      -3.844  -3.259   0.313  1.00  0.00     0.159 HD
ENDBRANCH   6  11
BRANCH   4  14
ATOM     14  N   UNL     1       0.555  -1.358  -0.012  1.00  0.00    -0.229 NA
BRANCH  14  15
ATOM     15  C   UNL     1       1.784  -0.639  -0.200  1.00  0.00     0.066 A 
ATOM     16  C   UNL     1       1.936   0.284  -1.250  1.00  0.00     0.029 A 
ATOM     17  C   UNL     1       2.887  -0.950   0.606  1.00  0.00     0.029 A 
ATOM     18  C   UNL     1       3.161   0.929  -1.447  1.00  0.00     0.018 A 
ATOM     19  C   UNL     1       4.111  -0.304   0.408  1.00  0.00     0.018 A 
ATOM     20  C   UNL     1       4.247   0.640  -0.615  1.00  0.00     0.018 A 
ATOM     21  Br  UNL     1       5.920   1.520  -0.888  1.00  0.00    -0.051 Br
ENDBRANCH  14  15
ENDBRANCH   4  14
TORSDOF 4
