REMARK SMILES S=c1[nH]cnc2sc(=Nc3ccccc3)[nH]c12
REMARK SMILES IDX 16 1 8 2 7 3 6 4 5 5 4 6 3 7 2 8 1 9 17 10 9 13 10 14 11 15
REMARK SMILES IDX 15 16 12 17 14 18 13 19
REMARK H PARENT 16 11 3 12
ROOT
ATOM      1  N   UNL     1      -0.827  -0.019   0.369  1.00  0.00    -0.327 N 
ATOM      2  C   UNL     1      -0.433   0.311   1.629  1.00  0.00     0.189 A 
ATOM      3  S   UNL     1      -1.741   0.674   2.643  1.00  0.00    -0.076 S 
ATOM      4  C   UNL     1      -2.840   0.418   1.401  1.00  0.00     0.147 A 
ATOM      5  N   UNL     1      -4.187   0.525   1.462  1.00  0.00    -0.226 NA
ATOM      6  C   UNL     1      -4.917   0.261   0.342  1.00  0.00     0.199 A 
ATOM      7  N   UNL     1      -4.298  -0.109  -0.821  1.00  0.00    -0.336 N 
ATOM      8  C   UNL     1      -2.937  -0.225  -0.897  1.00  0.00     0.131 A 
ATOM      9  S   UNL     1      -2.227  -0.671  -2.308  1.00  0.00    -0.058 S 
ATOM     10  C   UNL     1      -2.180   0.050   0.248  1.00  0.00     0.112 A 
ATOM     11  H   UNL     1      -0.191  -0.331  -0.397  1.00  0.00     0.169 HD
ATOM     12  H   UNL     1      -4.887  -0.306  -1.661  1.00  0.00     0.168 HD
ENDROOT
BRANCH   2  13
ATOM     13  N   UNL     1       0.799   0.302   2.047  1.00  0.00    -0.221 NA
BRANCH  13  14
ATOM     14  C   UNL     1       1.968   0.085   1.244  1.00  0.00     0.066 A 
ATOM     15  C   UNL     1       2.982  -0.752   1.729  1.00  0.00     0.028 A 
ATOM     16  C   UNL     1       2.166   0.778   0.036  1.00  0.00     0.028 A 
ATOM     17  C   UNL     1       4.154  -0.943   0.989  1.00  0.00     0.002 A 
ATOM     18  C   UNL     1       3.338   0.585  -0.702  1.00  0.00     0.002 A 
ATOM     19  C   UNL     1       4.329  -0.279  -0.229  1.00  0.00     0.000 A 
ENDBRANCH  13  14
ENDBRANCH   2  13
TORSDOF 2
