REMARK SMILES Cc1ccc(C)c([C@@H]2NC(=O)c3ccccc3N2)c1
REMARK SMILES IDX 8 1 9 2 10 3 11 4 12 5 13 6 14 7 15 8 16 9 17 10 18 11 7 14
REMARK SMILES IDX 2 15 3 16 19 17 4 18 5 19 1 20 6 21
REMARK H PARENT 9 12 18 13
ROOT
ATOM      1  C   UNL     1      -0.291  -1.520   0.037  1.00  0.00     0.208 C 
ATOM      2  N   UNL     1      -1.143  -1.412  -1.151  1.00  0.00    -0.328 N 
ATOM      3  C   UNL     1      -2.204  -0.458  -1.260  1.00  0.00     0.255 C 
ATOM      4  O   UNL     1      -2.786  -0.299  -2.367  1.00  0.00    -0.269 OA
ATOM      5  C   UNL     1      -2.615   0.312  -0.078  1.00  0.00     0.063 A 
ATOM      6  C   UNL     1      -3.643   1.269  -0.142  1.00  0.00     0.016 A 
ATOM      7  C   UNL     1      -4.021   1.970   1.006  1.00  0.00     0.001 A 
ATOM      8  C   UNL     1      -3.381   1.719   2.222  1.00  0.00     0.002 A 
ATOM      9  C   UNL     1      -2.359   0.768   2.292  1.00  0.00     0.026 A 
ATOM     10  C   UNL     1      -1.969   0.064   1.143  1.00  0.00     0.049 A 
ATOM     11  N   UNL     1      -0.911  -0.904   1.218  1.00  0.00    -0.361 N 
ATOM     12  H   UNL     1      -0.890  -1.977  -1.992  1.00  0.00     0.166 HD
ATOM     13  H   UNL     1      -0.475  -1.103   2.147  1.00  0.00     0.163 HD
ENDROOT
BRANCH   1  14
ATOM     14  C   UNL     1       1.058  -0.877  -0.245  1.00  0.00    -0.002 A 
ATOM     15  C   UNL     1       2.342   1.170  -0.633  1.00  0.00    -0.051 A 
ATOM     16  C   UNL     1       3.505   0.409  -0.787  1.00  0.00     0.004 A 
ATOM     17  C   UNL     1       1.130   0.526  -0.353  1.00  0.00     0.011 A 
ATOM     18  C   UNL     1       3.452  -0.982  -0.705  1.00  0.00     0.004 A 
ATOM     19  C   UNL     1       2.238  -1.642  -0.450  1.00  0.00    -0.044 A 
ATOM     20  C   UNL     1       2.404   2.667  -0.696  1.00  0.00     0.044 C 
ATOM     21  C   UNL     1       2.233  -3.148  -0.392  1.00  0.00     0.045 C 
ENDBRANCH   1  14
TORSDOF 1
