REMARK SMILES COc1ccc2c3c([nH]c2c1)[C@H](C)N(C(C)=O)CC3
REMARK SMILES IDX 3 1 4 2 5 3 6 4 7 5 8 6 9 7 10 8 11 9 12 10 13 11 14 12
REMARK SMILES IDX 18 13 19 14 2 16 1 17 15 18 16 19 17 20
REMARK H PARENT 9 15
ROOT
ATOM      1  C   UNL     1       3.945  -0.905   0.871  1.00  0.00     0.120 A 
ATOM      2  C   UNL     1       3.268  -2.141   0.740  1.00  0.00     0.047 A 
ATOM      3  C   UNL     1       1.944  -2.194   0.267  1.00  0.00     0.014 A 
ATOM      4  C   UNL     1       1.331  -0.994  -0.078  1.00  0.00     0.003 A 
ATOM      5  C   UNL     1       0.064  -0.712  -0.536  1.00  0.00    -0.015 A 
ATOM      6  C   UNL     1      -0.007   0.653  -0.644  1.00  0.00     0.042 A 
ATOM      7  N   UNL     1       1.162   1.235  -0.290  1.00  0.00    -0.356 N 
ATOM      8  C   UNL     1       1.974   0.214   0.049  1.00  0.00     0.050 A 
ATOM      9  C   UNL     1       3.282   0.299   0.522  1.00  0.00     0.073 A 
ATOM     10  C   UNL     1      -1.289   1.360  -0.953  1.00  0.00     0.129 C 
ATOM     11  C   UNL     1      -1.960   1.809   0.348  1.00  0.00     0.038 C 
ATOM     12  N   UNL     1      -2.207   0.484  -1.726  1.00  0.00    -0.334 N 
ATOM     13  C   UNL     1      -2.058  -0.996  -1.776  1.00  0.00     0.125 C 
ATOM     14  C   UNL     1      -1.127  -1.583  -0.697  1.00  0.00     0.059 C 
ATOM     15  H   UNL     1       1.371   2.257  -0.243  1.00  0.00     0.166 HD
ENDROOT
BRANCH   1  16
ATOM     16  O   UNL     1       5.263  -0.919   1.351  1.00  0.00    -0.497 OA
ATOM     17  C   UNL     1       6.062   0.244   1.534  1.00  0.00     0.278 C 
ENDBRANCH   1  16
BRANCH  12  18
ATOM     18  C   UNL     1      -3.236   1.110  -2.531  1.00  0.00     0.220 C 
ATOM     19  C   UNL     1      -4.150   0.308  -3.411  1.00  0.00     0.114 C 
ATOM     20  O   UNL     1      -3.390   2.362  -2.498  1.00  0.00    -0.275 OA
ENDBRANCH  12  18
TORSDOF 2
