REMARK SMILES Cc1cccc(N=C2SC3(CCCC3)NC(=O)[C@@H]2C#N)c1
REMARK SMILES IDX 18 1 16 2 17 3 15 4 10 5 11 6 12 7 13 8 14 9 9 10 8 11 19 13
REMARK SMILES IDX 20 14 7 15 6 16 5 17 21 18 4 19 2 20 3 21 1 22
REMARK H PARENT 15 12
ROOT
ATOM      1  C   UNL     1      -0.619   2.408   1.304  1.00  0.00     0.237 C 
ATOM      2  C   UNL     1      -2.107   2.211   1.397  1.00  0.00     0.245 C 
ATOM      3  O   UNL     1      -2.744   2.836   2.287  1.00  0.00    -0.273 OA
ATOM      4  N   UNL     1      -2.837   1.412   0.454  1.00  0.00    -0.340 N 
ATOM      5  C   UNL     1      -2.255   0.274  -0.274  1.00  0.00     0.092 C 
ATOM      6  C   UNL     1      -2.188  -0.950   0.637  1.00  0.00     0.040 C 
ATOM      7  C   UNL     1      -3.586  -1.551   0.599  1.00  0.00     0.003 C 
ATOM      8  C   UNL     1      -4.191  -1.139  -0.741  1.00  0.00     0.003 C 
ATOM      9  C   UNL     1      -3.203  -0.171  -1.390  1.00  0.00     0.040 C 
ATOM     10  S   UNL     1      -0.625   0.728  -0.985  1.00  0.00    -0.081 SA
ATOM     11  C   UNL     1       0.068   1.289   0.581  1.00  0.00     0.103 C 
ATOM     12  H   UNL     1      -3.876   1.535   0.441  1.00  0.00     0.164 HD
ENDROOT
BRANCH   1  13
ATOM     13  C   UNL     1      -0.338   3.675   0.617  1.00  0.00     0.083 C 
ATOM     14  N   UNL     1      -0.116   4.674   0.076  1.00  0.00    -0.197 NA
ENDBRANCH   1  13
BRANCH  11  15
ATOM     15  N   UNL     1       1.262   0.943   0.975  1.00  0.00    -0.245 NA
BRANCH  15  16
ATOM     16  C   UNL     1       2.154   0.005   0.354  1.00  0.00     0.064 A 
ATOM     17  C   UNL     1       1.735  -1.278  -0.029  1.00  0.00     0.028 A 
ATOM     18  C   UNL     1       3.504   0.355   0.213  1.00  0.00     0.031 A 
ATOM     19  C   UNL     1       2.643  -2.180  -0.589  1.00  0.00     0.002 A 
ATOM     20  C   UNL     1       4.418  -0.540  -0.367  1.00  0.00    -0.049 A 
ATOM     21  C   UNL     1       3.981  -1.814  -0.758  1.00  0.00     0.003 A 
ATOM     22  C   UNL     1       5.864  -0.165  -0.496  1.00  0.00     0.044 C 
ENDBRANCH  15  16
ENDBRANCH  11  15
TORSDOF 3
