REMARK SMILES CC(=O)Oc1c(C)c(OC(C)=O)c2c(c1C(C)=O)O[C@H]1CC(=O)C(C(C)=O)=C(O)[C@]21C
REMARK SMILES IDX 5 1 6 2 7 3 8 4 13 5 14 6 15 7 19 8 20 9 21 10 22 11 23 12
REMARK SMILES IDX 24 13 28 14 30 15 31 16 4 17 2 18 1 19 3 20 16 21 17 22
REMARK SMILES IDX 18 23 9 24 10 25 11 26 12 27 29 28 25 30 26 31 27 32
REMARK H PARENT 29 29
ROOT
ATOM      1  C   UNL     1       2.645  -0.296  -0.645  1.00  0.00     0.152 A 
ATOM      2  C   UNL     1       1.900   0.865  -0.975  1.00  0.00     0.036 A 
ATOM      3  C   UNL     1       2.602   2.039  -1.606  1.00  0.00     0.052 C 
ATOM      4  C   UNL     1       0.522   0.934  -0.649  1.00  0.00     0.145 A 
ATOM      5  C   UNL     1      -0.118  -0.228  -0.201  1.00  0.00     0.055 A 
ATOM      6  C   UNL     1       0.624  -1.342   0.155  1.00  0.00     0.142 A 
ATOM      7  C   UNL     1       2.004  -1.422  -0.065  1.00  0.00     0.103 A 
ATOM      8  O   UNL     1      -0.172  -2.313   0.751  1.00  0.00    -0.487 OA
ATOM      9  C   UNL     1      -1.516  -1.942   0.505  1.00  0.00     0.199 C 
ATOM     10  C   UNL     1      -2.598  -2.419   1.467  1.00  0.00     0.128 C 
ATOM     11  C   UNL     1      -3.901  -1.740   1.066  1.00  0.00     0.173 C 
ATOM     12  O   UNL     1      -4.969  -2.110   1.625  1.00  0.00    -0.294 OA
ATOM     13  C   UNL     1      -3.936  -0.636   0.031  1.00  0.00     0.099 C 
ATOM     14  C   UNL     1      -2.768  -0.067  -0.388  1.00  0.00     0.121 C 
ATOM     15  C   UNL     1      -1.500  -0.402   0.383  1.00  0.00     0.095 C 
ATOM     16  C   UNL     1      -1.512   0.336   1.750  1.00  0.00     0.029 C 
ENDROOT
BRANCH   1  17
ATOM     17  O   UNL     1       4.026  -0.301  -0.886  1.00  0.00    -0.425 OA
BRANCH  17  18
ATOM     18  C   UNL     1       4.979  -0.383   0.135  1.00  0.00     0.308 C 
ATOM     19  C   UNL     1       6.423  -0.507  -0.214  1.00  0.00     0.139 C 
ATOM     20  O   UNL     1       4.630  -0.367   1.347  1.00  0.00    -0.252 OA
ENDBRANCH  17  18
ENDBRANCH   1  17
BRANCH   7  21
ATOM     21  C   UNL     1       2.751  -2.667   0.242  1.00  0.00     0.167 C 
ATOM     22  C   UNL     1       2.414  -3.512   1.432  1.00  0.00     0.094 C 
ATOM     23  O   UNL     1       3.669  -3.051  -0.531  1.00  0.00    -0.294 OA
ENDBRANCH   7  21
BRANCH   4  24
ATOM     24  O   UNL     1      -0.201   2.130  -0.743  1.00  0.00    -0.426 OA
BRANCH  24  25
ATOM     25  C   UNL     1       0.140   3.296  -0.049  1.00  0.00     0.308 C 
ATOM     26  C   UNL     1      -0.621   4.550  -0.308  1.00  0.00     0.139 C 
ATOM     27  O   UNL     1       1.030   3.278   0.845  1.00  0.00    -0.252 OA
ENDBRANCH  24  25
ENDBRANCH   4  24
BRANCH  14  28
ATOM     28  O   UNL     1      -2.751   0.756  -1.515  1.00  0.00    -0.510 OA
ATOM     29  H   UNL     1      -1.900   1.011  -1.991  1.00  0.00     0.293 HD
ENDBRANCH  14  28
BRANCH  13  30
ATOM     30  C   UNL     1      -5.240  -0.269  -0.578  1.00  0.00     0.166 C 
ATOM     31  C   UNL     1      -5.550   1.133  -1.010  1.00  0.00     0.094 C 
ATOM     32  O   UNL     1      -6.120  -1.157  -0.740  1.00  0.00    -0.294 OA
ENDBRANCH  13  30
TORSDOF 7
