REMARK SMILES O=C1CCC[C@H]1C(=O)Nc1ccc2ccccc2c1
REMARK SMILES IDX 1 1 2 2 3 3 4 4 5 5 6 6 7 7 9 8 8 9 10 11 11 12 19 13 12 14
REMARK SMILES IDX 18 15 13 16 17 17 14 18 16 19 15 20
REMARK H PARENT 9 10
ROOT
ATOM      1  O   UNL     1       3.271   1.808  -1.289  1.00  0.00    -0.299 OA
ATOM      2  C   UNL     1       3.568   0.803  -0.661  1.00  0.00     0.145 C 
ATOM      3  C   UNL     1       4.430   0.832   0.544  1.00  0.00     0.076 C 
ATOM      4  C   UNL     1       4.704  -0.640   0.834  1.00  0.00     0.009 C 
ATOM      5  C   UNL     1       3.633  -1.450   0.093  1.00  0.00     0.022 C 
ATOM      6  C   UNL     1       3.127  -0.563  -1.050  1.00  0.00     0.145 C 
ENDROOT
BRANCH   6   7
ATOM      7  C   UNL     1       1.632  -0.651  -1.218  1.00  0.00     0.234 C 
ATOM      8  N   UNL     1       0.750  -0.071  -0.240  1.00  0.00    -0.325 N 
ATOM      9  O   UNL     1       1.164  -1.301  -2.192  1.00  0.00    -0.274 OA
ATOM     10  H   UNL     1       1.153   0.191   0.688  1.00  0.00     0.169 HD
BRANCH   8  11
ATOM     11  C   UNL     1      -0.669   0.072  -0.421  1.00  0.00     0.041 A 
ATOM     12  C   UNL     1      -1.221   0.359  -1.683  1.00  0.00     0.027 A 
ATOM     13  C   UNL     1      -1.515  -0.016   0.695  1.00  0.00     0.034 A 
ATOM     14  C   UNL     1      -2.601   0.518  -1.834  1.00  0.00     0.011 A 
ATOM     15  C   UNL     1      -2.902   0.141   0.552  1.00  0.00    -0.016 A 
ATOM     16  C   UNL     1      -3.450   0.408  -0.725  1.00  0.00    -0.018 A 
ATOM     17  C   UNL     1      -3.752   0.038   1.665  1.00  0.00     0.009 A 
ATOM     18  C   UNL     1      -4.838   0.566  -0.867  1.00  0.00     0.009 A 
ATOM     19  C   UNL     1      -5.132   0.197   1.510  1.00  0.00     0.001 A 
ATOM     20  C   UNL     1      -5.673   0.460   0.249  1.00  0.00     0.001 A 
ENDBRANCH   8  11
ENDBRANCH   6   7
TORSDOF 2
