REMARK SMILES NC(=O)c1ccccc1NC(=O)c1ccccc1Cl
REMARK SMILES IDX 4 1 5 2 6 3 7 4 8 5 9 6 2 7 1 8 3 11 10 12 11 13 12 15 13 16
REMARK SMILES IDX 14 17 18 18 15 19 17 20 16 21 19 22
REMARK H PARENT 1 9 1 10 10 14
ROOT
ATOM      1  C   UNL     1       2.525  -0.590  -0.056  1.00  0.00     0.063 A 
ATOM      2  C   UNL     1       3.866  -0.167  -0.003  1.00  0.00     0.016 A 
ATOM      3  C   UNL     1       4.182   1.190   0.083  1.00  0.00     0.001 A 
ATOM      4  C   UNL     1       3.166   2.144   0.118  1.00  0.00     0.002 A 
ATOM      5  C   UNL     1       1.830   1.744   0.070  1.00  0.00     0.027 A 
ATOM      6  C   UNL     1       1.492   0.382  -0.023  1.00  0.00     0.054 A 
ENDROOT
BRANCH   1   7
ATOM      7  C   UNL     1       2.229  -2.035  -0.200  1.00  0.00     0.250 C 
ATOM      8  N   UNL     1       3.032  -3.017   0.459  1.00  0.00    -0.366 N 
ATOM      9  H   UNL     1       3.778  -2.742   1.135  1.00  0.00     0.159 HD
ATOM     10  H   UNL     1       2.841  -4.033   0.313  1.00  0.00     0.159 HD
ATOM     11  O   UNL     1       1.271  -2.414  -0.927  1.00  0.00    -0.269 OA
ENDBRANCH   1   7
BRANCH   6  12
ATOM     12  N   UNL     1       0.109  -0.012   0.012  1.00  0.00    -0.321 N 
ATOM     13  C   UNL     1      -0.924   0.685  -0.701  1.00  0.00     0.257 C 
ATOM     14  H   UNL     1      -0.154  -0.872   0.544  1.00  0.00     0.170 HD
ATOM     15  O   UNL     1      -0.621   1.462  -1.648  1.00  0.00    -0.269 OA
BRANCH  13  16
ATOM     16  C   UNL     1      -2.349   0.441  -0.393  1.00  0.00     0.058 A 
ATOM     17  C   UNL     1      -3.259   0.292  -1.455  1.00  0.00     0.015 A 
ATOM     18  C   UNL     1      -2.827   0.366   0.937  1.00  0.00     0.053 A 
ATOM     19  C   UNL     1      -4.610   0.043  -1.203  1.00  0.00     0.001 A 
ATOM     20  C   UNL     1      -4.184   0.115   1.176  1.00  0.00     0.021 A 
ATOM     21  C   UNL     1      -5.072  -0.051   0.111  1.00  0.00     0.002 A 
ATOM     22  Cl  UNL     1      -1.787   0.663   2.327  1.00  0.00    -0.083 Cl
ENDBRANCH  13  16
ENDBRANCH   6  12
TORSDOF 3
