REMARK SMILES C=C(O)C1=C(O)[C@]2(C)c3c(OC(C)=O)c(C)c(OC(C)=O)c(C(C)=O)c3O[C@@H]2C=C1O
REMARK SMILES IDX 4 1 5 2 7 3 8 4 9 5 10 6 15 7 16 8 17 9 22 10 26 11 27 12
REMARK SMILES IDX 28 13 29 14 30 15 2 16 1 17 3 18 6 20 31 22 11 24 12 25
REMARK SMILES IDX 13 26 14 27 23 28 24 29 25 30 18 31 19 32 20 33 21 34
REMARK H PARENT 3 19 6 21 31 23
ROOT
ATOM      1  C   UNL     1       3.465  -0.033   0.185  1.00  0.00     0.096 C 
ATOM      2  C   UNL     1       2.310   0.167   0.862  1.00  0.00     0.122 C 
ATOM      3  C   UNL     1       1.432   1.393   0.633  1.00  0.00     0.098 C 
ATOM      4  C   UNL     1       1.429   2.278   1.893  1.00  0.00     0.030 C 
ATOM      5  C   UNL     1       0.034   0.957   0.247  1.00  0.00     0.056 A 
ATOM      6  C   UNL     1      -0.957   0.329   1.019  1.00  0.00     0.145 A 
ATOM      7  C   UNL     1      -2.204   0.027   0.408  1.00  0.00     0.036 A 
ATOM      8  C   UNL     1      -3.367  -0.444   1.247  1.00  0.00     0.052 C 
ATOM      9  C   UNL     1      -2.380   0.254  -0.988  1.00  0.00     0.152 A 
ATOM     10  C   UNL     1      -1.361   0.889  -1.739  1.00  0.00     0.103 A 
ATOM     11  C   UNL     1      -0.186   1.247  -1.072  1.00  0.00     0.143 A 
ATOM     12  O   UNL     1       0.883   1.918  -1.626  1.00  0.00    -0.483 OA
ATOM     13  C   UNL     1       1.840   2.241  -0.626  1.00  0.00     0.218 C 
ATOM     14  C   UNL     1       3.220   2.009  -1.152  1.00  0.00     0.065 C 
ATOM     15  C   UNL     1       3.950   0.947  -0.814  1.00  0.00     0.129 C 
ENDROOT
BRANCH   1  16
ATOM     16  C   UNL     1       4.268  -1.256   0.409  1.00  0.00     0.122 C 
ATOM     17  C   UNL     1       5.525  -1.176   0.851  1.00  0.00     0.059 C 
BRANCH  16  18
ATOM     18  O   UNL     1       3.691  -2.500   0.152  1.00  0.00    -0.508 OA
ATOM     19  H   UNL     1       4.200  -3.366   0.290  1.00  0.00     0.293 HD
ENDBRANCH  16  18
ENDBRANCH   1  16
BRANCH   2  20
ATOM     20  O   UNL     1       1.898  -0.732   1.852  1.00  0.00    -0.510 OA
ATOM     21  H   UNL     1       2.438  -1.532   2.156  1.00  0.00     0.293 HD
ENDBRANCH   2  20
BRANCH  15  22
ATOM     22  O   UNL     1       5.191   0.746  -1.421  1.00  0.00    -0.507 OA
ATOM     23  H   UNL     1       5.564   1.386  -2.113  1.00  0.00     0.293 HD
ENDBRANCH  15  22
BRANCH   6  24
ATOM     24  O   UNL     1      -0.718   0.070   2.375  1.00  0.00    -0.426 OA
BRANCH  24  25
ATOM     25  C   UNL     1      -0.852  -1.194   2.962  1.00  0.00     0.308 C 
ATOM     26  C   UNL     1      -0.787  -1.323   4.446  1.00  0.00     0.139 C 
ATOM     27  O   UNL     1      -1.019  -2.223   2.253  1.00  0.00    -0.252 OA
ENDBRANCH  24  25
ENDBRANCH   6  24
BRANCH  10  28
ATOM     28  C   UNL     1      -1.509   1.201  -3.184  1.00  0.00     0.167 C 
ATOM     29  C   UNL     1      -2.244   0.295  -4.124  1.00  0.00     0.094 C 
ATOM     30  O   UNL     1      -1.005   2.261  -3.643  1.00  0.00    -0.294 OA
ENDBRANCH  10  28
BRANCH   9  31
ATOM     31  O   UNL     1      -3.586  -0.083  -1.616  1.00  0.00    -0.425 OA
BRANCH  31  32
ATOM     32  C   UNL     1      -4.077  -1.392  -1.686  1.00  0.00     0.308 C 
ATOM     33  C   UNL     1      -5.446  -1.633  -2.224  1.00  0.00     0.139 C 
ATOM     34  O   UNL     1      -3.380  -2.366  -1.293  1.00  0.00    -0.252 OA
ENDBRANCH  31  32
ENDBRANCH   9  31
TORSDOF 9
