REMARK SMILES CCCN=c1cc(S)nc(N)[nH]1
REMARK SMILES IDX 4 1 5 2 12 3 10 4 9 5 6 6 7 7 11 9 8 12 3 14 2 15 1 16
REMARK H PARENT 12 8 11 10 11 11 8 13
ROOT
ATOM      1  N   UNL     1      -0.462  -0.869  -0.271  1.00  0.00    -0.268 NA
ENDROOT
BRANCH   1   2
ATOM      2  C   UNL     1       0.769  -0.474  -0.103  1.00  0.00     0.130 A 
ATOM      3  N   UNL     1       1.077   0.815   0.240  1.00  0.00    -0.311 N 
ATOM      4  C   UNL     1       2.373   1.202   0.409  1.00  0.00     0.200 A 
ATOM      5  N   UNL     1       3.378   0.304   0.237  1.00  0.00    -0.209 NA
ATOM      6  C   UNL     1       1.800  -1.401  -0.281  1.00  0.00     0.082 A 
ATOM      7  C   UNL     1       3.118  -0.983  -0.103  1.00  0.00     0.101 A 
ATOM      8  H   UNL     1       0.328   1.529   0.380  1.00  0.00     0.171 HD
BRANCH   4   9
ATOM      9  N   UNL     1       2.683   2.549   0.767  1.00  0.00    -0.369 N 
ATOM     10  H   UNL     1       3.677   2.844   0.896  1.00  0.00     0.159 HD
ATOM     11  H   UNL     1       1.925   3.254   0.904  1.00  0.00     0.159 HD
ENDBRANCH   4   9
BRANCH   7  12
ATOM     12  S   UNL     1       4.468  -2.134  -0.321  1.00  0.00    -0.124 SA
ATOM     13  H   UNL     1       4.583  -1.823  -1.688  1.00  0.00     0.109 HD
ENDBRANCH   7  12
ENDBRANCH   1   2
BRANCH   1  14
ATOM     14  C   UNL     1      -1.655  -0.039  -0.126  1.00  0.00     0.144 C 
BRANCH  14  15
ATOM     15  C   UNL     1      -2.898  -0.882  -0.408  1.00  0.00     0.020 C 
ATOM     16  C   UNL     1      -4.172  -0.053  -0.268  1.00  0.00     0.006 C 
ENDBRANCH  14  15
ENDBRANCH   1  14
TORSDOF 5
