REMARK SMILES C=CCOc1ccc(S(C)(=O)=O)cc1
REMARK SMILES IDX 4 1 3 2 2 3 1 4 5 5 6 6 14 7 7 8 13 9 8 10 9 11 10 12 11 13
REMARK SMILES IDX 12 14
REMARK H PARENT
ROOT
ATOM      1  O   UNL     1       2.156  -0.122  -0.657  1.00  0.00    -0.490 OA
ENDROOT
BRANCH   1   2
ATOM      2  C   UNL     1       3.100  -0.834   0.139  1.00  0.00     0.257 C 
BRANCH   2   3
ATOM      3  C   UNL     1       4.488  -0.533  -0.339  1.00  0.00     0.006 C 
ATOM      4  C   UNL     1       5.000   0.698  -0.258  1.00  0.00     0.007 C 
ENDBRANCH   2   3
ENDBRANCH   1   2
BRANCH   1   5
ATOM      5  C   UNL     1       0.766  -0.177  -0.476  1.00  0.00     0.119 A 
ATOM      6  C   UNL     1       0.165  -0.961   0.528  1.00  0.00     0.048 A 
ATOM      7  C   UNL     1      -0.046   0.580  -1.329  1.00  0.00     0.048 A 
ATOM      8  C   UNL     1      -1.227  -0.981   0.666  1.00  0.00     0.024 A 
ATOM      9  C   UNL     1      -1.437   0.559  -1.190  1.00  0.00     0.024 A 
ATOM     10  C   UNL     1      -2.034  -0.227  -0.195  1.00  0.00     0.067 A 
BRANCH  10  11
ATOM     11  S   UNL     1      -3.784  -0.240  -0.008  1.00  0.00     0.175 S 
ATOM     12  C   UNL     1      -4.266   1.046   1.120  1.00  0.00     0.163 C 
ATOM     13  O   UNL     1      -4.229  -1.572   0.527  1.00  0.00    -0.224 OA
ATOM     14  O   UNL     1      -4.441  -0.013  -1.341  1.00  0.00    -0.224 OA
ENDBRANCH  10  11
ENDBRANCH   1   5
TORSDOF 4
