REMARK SMILES CCOc1ccc(NC(=O)Nc2cc(C(C)C)c(O)cc2C)cc1
REMARK SMILES IDX 4 1 5 2 6 3 7 4 23 5 24 6 3 7 2 8 1 9 8 10 9 11 11 12 10 14
REMARK SMILES IDX 12 16 13 17 21 18 14 19 20 20 18 21 22 22 15 23 16 24 17 25
REMARK SMILES IDX 19 26
REMARK H PARENT 8 13 11 15 19 27
ROOT
ATOM      1  C   UNL     1       5.338  -0.442  -0.104  1.00  0.00     0.119 A 
ATOM      2  C   UNL     1       5.102   0.922  -0.360  1.00  0.00     0.048 A 
ATOM      3  C   UNL     1       3.829   1.466  -0.165  1.00  0.00     0.030 A 
ATOM      4  C   UNL     1       2.769   0.659   0.273  1.00  0.00     0.043 A 
ATOM      5  C   UNL     1       3.012  -0.698   0.549  1.00  0.00     0.030 A 
ATOM      6  C   UNL     1       4.285  -1.241   0.354  1.00  0.00     0.048 A 
ENDROOT
BRANCH   1   7
ATOM      7  O   UNL     1       6.595  -1.036  -0.286  1.00  0.00    -0.494 OA
BRANCH   7   8
ATOM      8  C   UNL     1       7.753  -0.345  -0.747  1.00  0.00     0.226 C 
ATOM      9  C   UNL     1       8.924  -1.312  -0.823  1.00  0.00     0.049 C 
ENDBRANCH   7   8
ENDBRANCH   1   7
BRANCH   4  10
ATOM     10  N   UNL     1       1.476   1.249   0.487  1.00  0.00    -0.308 N 
ATOM     11  C   UNL     1       0.234   0.555   0.297  1.00  0.00     0.323 C 
ATOM     12  N   UNL     1      -0.984   1.137   0.781  1.00  0.00    -0.307 N 
ATOM     13  H   UNL     1       1.432   2.264   0.733  1.00  0.00     0.171 HD
ATOM     14  O   UNL     1       0.204  -0.534  -0.339  1.00  0.00    -0.248 OA
ATOM     15  H   UNL     1      -0.980   2.147   1.048  1.00  0.00     0.171 HD
BRANCH  12  16
ATOM     16  C   UNL     1      -2.248   0.463   0.694  1.00  0.00     0.046 A 
ATOM     17  C   UNL     1      -3.282   1.064  -0.034  1.00  0.00     0.034 A 
ATOM     18  C   UNL     1      -2.480  -0.763   1.355  1.00  0.00    -0.024 A 
ATOM     19  C   UNL     1      -4.536   0.443  -0.171  1.00  0.00    -0.002 A 
ATOM     20  C   UNL     1      -3.721  -1.397   1.203  1.00  0.00     0.052 A 
ATOM     21  C   UNL     1      -4.746  -0.808   0.450  1.00  0.00     0.119 A 
ATOM     22  C   UNL     1      -1.428  -1.416   2.211  1.00  0.00     0.047 C 
BRANCH  19  23
ATOM     23  C   UNL     1      -5.615   1.139  -0.991  1.00  0.00     0.017 C 
ATOM     24  C   UNL     1      -6.843   1.487  -0.141  1.00  0.00     0.012 C 
ATOM     25  C   UNL     1      -6.001   0.323  -2.232  1.00  0.00     0.012 C 
ENDBRANCH  19  23
BRANCH  21  26
ATOM     26  O   UNL     1      -5.968  -1.468   0.328  1.00  0.00    -0.508 OA
ATOM     27  H   UNL     1      -6.137  -2.365   0.767  1.00  0.00     0.293 HD
ENDBRANCH  21  26
ENDBRANCH  12  16
ENDBRANCH   4  10
TORSDOF 6
