REMARK SMILES O=C(c1cccnc1)N1CCN(c2ccccc2Cl)CC1
REMARK SMILES IDX 1 1 2 2 9 3 10 4 11 5 12 6 20 7 21 8 3 9 4 10 8 11 5 12 7 13
REMARK SMILES IDX 6 14 13 15 14 16 18 17 15 18 17 19 16 20 19 21
REMARK H PARENT
ROOT
ATOM      1  O   UNL     1       2.573  -1.141  -1.521  1.00  0.00    -0.269 OA
ATOM      2  C   UNL     1       1.800  -1.560  -0.616  1.00  0.00     0.255 C 
ATOM      3  N   UNL     1       0.544  -0.893  -0.400  1.00  0.00    -0.335 N 
ATOM      4  C   UNL     1      -0.207  -0.377  -1.549  1.00  0.00     0.141 C 
ATOM      5  C   UNL     1      -1.710  -0.486  -1.284  1.00  0.00     0.138 C 
ATOM      6  N   UNL     1      -2.029   0.044   0.045  1.00  0.00    -0.367 N 
ATOM      7  C   UNL     1      -1.271  -0.465   1.193  1.00  0.00     0.138 C 
ATOM      8  C   UNL     1       0.228  -0.343   0.924  1.00  0.00     0.141 C 
ENDROOT
BRANCH   2   9
ATOM      9  C   UNL     1       2.180  -2.748   0.182  1.00  0.00     0.058 A 
ATOM     10  C   UNL     1       3.517  -3.191   0.199  1.00  0.00     0.017 A 
ATOM     11  C   UNL     1       1.181  -3.441   0.892  1.00  0.00     0.124 A 
ATOM     12  C   UNL     1       3.895  -4.316   0.927  1.00  0.00     0.021 A 
ATOM     13  N   UNL     1       1.593  -4.564   1.613  1.00  0.00    -0.264 NA
ATOM     14  C   UNL     1       2.935  -5.014   1.643  1.00  0.00     0.111 A 
ENDBRANCH   2   9
BRANCH   6  15
ATOM     15  C   UNL     1      -3.297   0.680   0.270  1.00  0.00     0.056 A 
ATOM     16  C   UNL     1      -4.487  -0.002  -0.030  1.00  0.00     0.027 A 
ATOM     17  C   UNL     1      -3.361   1.987   0.792  1.00  0.00     0.064 A 
ATOM     18  C   UNL     1      -5.725   0.606   0.195  1.00  0.00     0.002 A 
ATOM     19  C   UNL     1      -4.605   2.589   1.014  1.00  0.00     0.023 A 
ATOM     20  C   UNL     1      -5.784   1.900   0.718  1.00  0.00     0.002 A 
ATOM     21  Cl  UNL     1      -1.898   2.901   1.134  1.00  0.00    -0.082 Cl
ENDBRANCH   6  15
TORSDOF 2
