REMARK SMILES O=C1c2ccccc2C(=O)N1c1nc[nH]n1
REMARK SMILES IDX 11 1 2 2 1 3 3 4 4 5 5 6 6 7 7 8 8 9 9 10 10 11 12 12 15 13
REMARK SMILES IDX 14 14 16 15 13 16
REMARK H PARENT 15 17
ROOT
ATOM      1  N   UNL     1       0.919  -0.087  -0.089  1.00  0.00    -0.207 N 
ATOM      2  C   UNL     1      -0.041  -1.073   0.303  1.00  0.00     0.268 C 
ATOM      3  O   UNL     1       0.249  -2.228   0.714  1.00  0.00    -0.268 OA
ATOM      4  C   UNL     1      -1.390  -0.538   0.156  1.00  0.00     0.053 A 
ATOM      5  C   UNL     1      -2.631  -1.117   0.410  1.00  0.00     0.015 A 
ATOM      6  C   UNL     1      -3.782  -0.345   0.169  1.00  0.00     0.001 A 
ATOM      7  C   UNL     1      -3.669   0.976  -0.316  1.00  0.00     0.001 A 
ATOM      8  C   UNL     1      -2.404   1.538  -0.565  1.00  0.00     0.015 A 
ATOM      9  C   UNL     1      -1.279   0.753  -0.318  1.00  0.00     0.053 A 
ATOM     10  C   UNL     1       0.141   1.049  -0.475  1.00  0.00     0.268 C 
ATOM     11  O   UNL     1       0.623   2.137  -0.888  1.00  0.00    -0.268 OA
ENDROOT
BRANCH   1  12
ATOM     12  C   UNL     1       2.347  -0.211  -0.093  1.00  0.00     0.258 A 
ATOM     13  N   UNL     1       4.393   0.283  -0.345  1.00  0.00    -0.264 N 
ATOM     14  C   UNL     1       4.286  -0.973   0.117  1.00  0.00     0.218 A 
ATOM     15  N   UNL     1       3.177   0.776  -0.481  1.00  0.00    -0.134 NA
ATOM     16  N   UNL     1       2.999  -1.330   0.291  1.00  0.00    -0.200 NA
ATOM     17  H   UNL     1       5.274   0.799  -0.563  1.00  0.00     0.191 HD
ENDBRANCH   1  12
TORSDOF 1
