REMARK SMILES Cc1cc(O)c(C(C)C)cc1/N=C/c1cc([N+](=O)[O-])ccc1O
REMARK SMILES IDX 12 1 11 2 2 3 3 4 4 5 10 6 6 7 1 8 5 9 7 11 8 12 9 13 13 14
REMARK SMILES IDX 14 15 15 16 22 17 16 18 21 19 20 20 23 21 17 23 18 24 19 25
REMARK H PARENT 5 10 23 22
ROOT
ATOM      1  N   UNL     1       0.910   0.635   0.175  1.00  0.00    -0.256 NA
ENDROOT
BRANCH   1   2
ATOM      2  C   UNL     1      -0.508   0.877   0.094  1.00  0.00     0.066 A 
ATOM      3  C   UNL     1      -0.961   2.202  -0.049  1.00  0.00    -0.022 A 
ATOM      4  C   UNL     1      -2.337   2.462  -0.119  1.00  0.00     0.052 A 
ATOM      5  C   UNL     1      -3.271   1.422  -0.037  1.00  0.00     0.119 A 
ATOM      6  C   UNL     1      -1.449  -0.166   0.197  1.00  0.00     0.036 A 
ATOM      7  C   UNL     1      -2.832   0.090   0.127  1.00  0.00    -0.001 A 
ATOM      8  C   UNL     1       0.021   3.338  -0.135  1.00  0.00     0.047 C 
BRANCH   5   9
ATOM      9  O   UNL     1      -4.630   1.720  -0.114  1.00  0.00    -0.508 OA
ATOM     10  H   UNL     1      -4.964   2.670  -0.230  1.00  0.00     0.293 HD
ENDBRANCH   5   9
BRANCH   7  11
ATOM     11  C   UNL     1      -3.803  -1.079   0.238  1.00  0.00     0.017 C 
ATOM     12  C   UNL     1      -4.633  -1.255  -1.039  1.00  0.00     0.012 C 
ATOM     13  C   UNL     1      -4.696  -0.962   1.480  1.00  0.00     0.012 C 
ENDBRANCH   7  11
ENDBRANCH   1   2
BRANCH   1  14
ATOM     14  C   UNL     1       1.515  -0.498  -0.025  1.00  0.00     0.124 C 
BRANCH  14  15
ATOM     15  C   UNL     1       2.987  -0.619   0.102  1.00  0.00     0.041 A 
ATOM     16  C   UNL     1       3.574  -1.873  -0.145  1.00  0.00     0.099 A 
ATOM     17  C   UNL     1       3.817   0.469   0.459  1.00  0.00     0.124 A 
ATOM     18  C   UNL     1       4.964  -2.058  -0.043  1.00  0.00     0.270 A 
ATOM     19  C   UNL     1       5.202   0.283   0.561  1.00  0.00     0.054 A 
ATOM     20  C   UNL     1       5.771  -0.966   0.312  1.00  0.00     0.089 A 
BRANCH  17  21
ATOM     21  O   UNL     1       3.276   1.729   0.714  1.00  0.00    -0.507 OA
ATOM     22  H   UNL     1       3.858   2.518   0.970  1.00  0.00     0.293 HD
ENDBRANCH  17  21
BRANCH  18  23
ATOM     23  N   UNL     1       5.548  -3.349  -0.300  1.00  0.00     0.062 N 
ATOM     24  O   UNL     1       6.782  -3.518  -0.211  1.00  0.00    -0.258 OA
ATOM     25  O   UNL     1       4.756  -4.419  -0.649  1.00  0.00    -0.258 OA
ENDBRANCH  18  23
ENDBRANCH  14  15
ENDBRANCH   1  14
TORSDOF 7
