REMARK SMILES Clc1nc2nc3n(c2nc1Cl)CCC3
REMARK SMILES IDX 1 1 2 2 3 3 4 4 5 5 6 6 7 7 8 8 9 9 10 10 11 11 12 12 13 13
REMARK SMILES IDX 14 14
REMARK H PARENT
ROOT
ATOM      1  Cl  UNL     1       5.216   0.296   0.335  1.00  0.00    -0.059 Cl
ATOM      2  C   UNL     1       3.487  -0.009   0.377  1.00  0.00     0.169 A 
ATOM      3  N   UNL     1       2.666   0.926   0.946  1.00  0.00    -0.210 NA
ATOM      4  C   UNL     1       1.337   0.673   0.993  1.00  0.00     0.199 A 
ATOM      5  N   UNL     1       0.359   1.547   1.327  1.00  0.00    -0.212 NA
ATOM      6  C   UNL     1      -0.753   0.822   1.020  1.00  0.00     0.113 A 
ATOM      7  N   UNL     1      -0.511  -0.379   0.508  1.00  0.00    -0.311 N 
ATOM      8  C   UNL     1       0.817  -0.466   0.463  1.00  0.00     0.181 A 
ATOM      9  N   UNL     1       1.577  -1.386  -0.172  1.00  0.00    -0.211 NA
ATOM     10  C   UNL     1       2.930  -1.186  -0.203  1.00  0.00     0.168 A 
ATOM     11  Cl  UNL     1       3.946  -2.383  -0.989  1.00  0.00    -0.059 Cl
ATOM     12  C   UNL     1      -1.596  -0.903  -0.283  1.00  0.00     0.126 C 
ATOM     13  C   UNL     1      -2.732   0.126  -0.048  1.00  0.00     0.030 C 
ATOM     14  C   UNL     1      -2.118   1.311   0.747  1.00  0.00     0.077 C 
ENDROOT
TORSDOF 0
