REMARK SMILES NC(=[NH2+])NN=Cc1c(Cl)cccc1Cl
REMARK SMILES IDX 5 1 4 2 2 3 1 4 3 8 6 11 7 12 8 13 13 14 10 15 12 16 11 17
REMARK SMILES IDX 9 18 14 19
REMARK H PARENT 4 5 1 6 1 7 3 9 3 10
ROOT
ATOM      1  N   UNL     1       0.944   0.115  -1.040  1.00  0.00    -0.121 NA
ENDROOT
BRANCH   1   2
ATOM      2  N   UNL     1       2.341   0.276  -0.965  1.00  0.00    -0.157 N 
ATOM      3  C   UNL     1       3.111   0.052   0.228  1.00  0.00     0.362 C 
ATOM      4  N   UNL     1       4.340   0.761   0.407  1.00  0.00    -0.289 N 
ATOM      5  H   UNL     1       2.851   0.534  -1.838  1.00  0.00     0.295 HD
ATOM      6  H   UNL     1       4.938   0.599   1.248  1.00  0.00     0.256 HD
ATOM      7  H   UNL     1       4.652   1.460  -0.303  1.00  0.00     0.256 HD
BRANCH   3   8
ATOM      8  N   UNL     1       2.744  -0.835   1.103  1.00  0.00    -0.289 N 
ATOM      9  H   UNL     1       3.316  -1.010   1.959  1.00  0.00     0.256 HD
ATOM     10  H   UNL     1       1.891  -1.420   0.962  1.00  0.00     0.256 HD
ENDBRANCH   3   8
ENDBRANCH   1   2
BRANCH   1  11
ATOM     11  C   UNL     1       0.141   0.365  -0.050  1.00  0.00     0.161 C 
BRANCH  11  12
ATOM     12  C   UNL     1      -1.317   0.119  -0.159  1.00  0.00     0.033 A 
ATOM     13  C   UNL     1      -2.015   0.264  -1.386  1.00  0.00     0.051 A 
ATOM     14  C   UNL     1      -2.042  -0.258   0.997  1.00  0.00     0.051 A 
ATOM     15  C   UNL     1      -3.391   0.014  -1.441  1.00  0.00     0.021 A 
ATOM     16  C   UNL     1      -3.417  -0.501   0.917  1.00  0.00     0.021 A 
ATOM     17  C   UNL     1      -4.088  -0.369  -0.296  1.00  0.00     0.003 A 
ATOM     18  Cl  UNL     1      -1.239   0.820  -2.867  1.00  0.00    -0.084 Cl
ATOM     19  Cl  UNL     1      -1.258  -0.480   2.560  1.00  0.00    -0.084 Cl
ENDBRANCH  11  12
ENDBRANCH   1  11
TORSDOF 4
