REMARK SMILES O=C(Nc1cccc(C(F)(F)F)c1)Oc1ccc(Cl)c2cccnc12
REMARK SMILES IDX 1 1 2 2 3 3 14 5 15 6 16 7 25 8 17 9 24 10 20 11 18 12 23 13
REMARK SMILES IDX 21 14 22 15 19 16 4 17 5 18 13 19 6 20 8 21 7 22 9 23 10 24
REMARK SMILES IDX 11 25 12 26
REMARK H PARENT 3 4
ROOT
ATOM      1  O   UNL     1       0.123   0.291  -1.193  1.00  0.00    -0.224 OA
ATOM      2  C   UNL     1       0.108   1.327  -0.474  1.00  0.00     0.417 C 
ATOM      3  N   UNL     1       1.333   1.895   0.007  1.00  0.00    -0.291 N 
ATOM      4  H   UNL     1       1.314   2.895   0.308  1.00  0.00     0.173 HD
ENDROOT
BRANCH   2   5
ATOM      5  O   UNL     1      -1.099   1.982  -0.201  1.00  0.00    -0.408 OA
BRANCH   5   6
ATOM      6  C   UNL     1      -2.365   1.407  -0.380  1.00  0.00     0.159 A 
ATOM      7  C   UNL     1      -3.358   2.171  -1.000  1.00  0.00     0.051 A 
ATOM      8  C   UNL     1      -2.672   0.108   0.076  1.00  0.00     0.114 A 
ATOM      9  C   UNL     1      -4.631   1.643  -1.214  1.00  0.00     0.025 A 
ATOM     10  N   UNL     1      -1.743  -0.621   0.754  1.00  0.00    -0.252 NA
ATOM     11  C   UNL     1      -3.967  -0.432  -0.138  1.00  0.00     0.023 A 
ATOM     12  C   UNL     1      -4.944   0.345  -0.796  1.00  0.00     0.050 A 
ATOM     13  C   UNL     1      -2.000  -1.872   1.215  1.00  0.00     0.112 A 
ATOM     14  C   UNL     1      -4.237  -1.730   0.332  1.00  0.00     0.013 A 
ATOM     15  C   UNL     1      -3.251  -2.450   1.007  1.00  0.00     0.021 A 
ATOM     16  Cl  UNL     1      -6.573  -0.253  -1.103  1.00  0.00    -0.084 Cl
ENDBRANCH   5   6
ENDBRANCH   2   5
BRANCH   3  17
ATOM     17  C   UNL     1       2.591   1.198   0.025  1.00  0.00     0.045 A 
ATOM     18  C   UNL     1       3.780   1.923  -0.136  1.00  0.00     0.026 A 
ATOM     19  C   UNL     1       2.658  -0.189   0.256  1.00  0.00     0.039 A 
ATOM     20  C   UNL     1       5.014   1.270  -0.116  1.00  0.00     0.003 A 
ATOM     21  C   UNL     1       3.899  -0.849   0.305  1.00  0.00     0.058 A 
ATOM     22  C   UNL     1       5.075  -0.110   0.089  1.00  0.00     0.013 A 
BRANCH  21  23
ATOM     23  C   UNL     1       3.959  -2.344   0.499  1.00  0.00     0.416 C 
ATOM     24  F   UNL     1       3.837  -2.966  -0.730  1.00  0.00    -0.166 F 
ATOM     25  F   UNL     1       2.932  -2.769   1.324  1.00  0.00    -0.166 F 
ATOM     26  F   UNL     1       5.160  -2.718   1.076  1.00  0.00    -0.166 F 
ENDBRANCH  21  23
ENDBRANCH   3  17
TORSDOF 4
