REMARK SMILES O=C([O-])c1cc2cc(OCc3ccccc3)ccc2[nH]1
REMARK SMILES IDX 4 1 5 2 20 3 6 4 19 5 7 6 18 7 8 8 17 9 2 11 1 12 3 13 9 14
REMARK SMILES IDX 10 15 11 16 12 17 16 18 13 19 15 20 14 21
REMARK H PARENT 20 10
ROOT
ATOM      1  C   UNL     1       4.904  -0.781  -0.207  1.00  0.00     0.062 A 
ATOM      2  C   UNL     1       3.745  -1.519  -0.446  1.00  0.00     0.038 A 
ATOM      3  N   UNL     1       4.605   0.471   0.214  1.00  0.00    -0.354 N 
ATOM      4  C   UNL     1       2.711  -0.657  -0.150  1.00  0.00     0.004 A 
ATOM      5  C   UNL     1       3.263   0.532   0.244  1.00  0.00     0.046 A 
ATOM      6  C   UNL     1       1.332  -0.846  -0.204  1.00  0.00     0.056 A 
ATOM      7  C   UNL     1       2.474   1.618   0.613  1.00  0.00     0.030 A 
ATOM      8  C   UNL     1       0.497   0.229   0.161  1.00  0.00     0.120 A 
ATOM      9  C   UNL     1       1.077   1.462   0.570  1.00  0.00     0.048 A 
ATOM     10  H   UNL     1       5.275   1.232   0.465  1.00  0.00     0.167 HD
ENDROOT
BRANCH   1  11
ATOM     11  C   UNL     1       6.276  -1.276  -0.382  1.00  0.00     0.088 C 
ATOM     12  O   UNL     1       6.482  -2.454  -0.777  1.00  0.00    -0.543 OA
ATOM     13  O   UNL     1       7.356  -0.446  -0.111  1.00  0.00    -0.543 OA
ENDBRANCH   1  11
BRANCH   8  14
ATOM     14  O   UNL     1      -0.891   0.035   0.106  1.00  0.00    -0.489 OA
BRANCH  14  15
ATOM     15  C   UNL     1      -1.857   1.026   0.444  1.00  0.00     0.265 C 
BRANCH  15  16
ATOM     16  C   UNL     1      -3.232   0.456   0.263  1.00  0.00    -0.011 A 
ATOM     17  C   UNL     1      -3.876   0.542  -0.983  1.00  0.00     0.007 A 
ATOM     18  C   UNL     1      -3.860  -0.228   1.317  1.00  0.00     0.007 A 
ATOM     19  C   UNL     1      -5.143  -0.024  -1.161  1.00  0.00     0.000 A 
ATOM     20  C   UNL     1      -5.127  -0.792   1.134  1.00  0.00     0.000 A 
ATOM     21  C   UNL     1      -5.769  -0.688  -0.103  1.00  0.00     0.000 A 
ENDBRANCH  15  16
ENDBRANCH  14  15
ENDBRANCH   8  14
TORSDOF 4
