REMARK SMILES COc1ccccc1NC(=O)Nc1cc(C(C)C)ccc1C
REMARK SMILES IDX 9 1 10 2 11 3 12 4 8 7 3 8 4 9 5 10 7 11 6 12 2 13 1 14
REMARK SMILES IDX 13 15 14 16 21 17 15 18 20 19 19 20 22 21 16 22 17 23 18 24
REMARK H PARENT 9 5 12 6
ROOT
ATOM      1  N   UNL     1       2.361   0.323  -0.230  1.00  0.00    -0.304 N 
ATOM      2  C   UNL     1       0.972  -0.040  -0.228  1.00  0.00     0.323 C 
ATOM      3  O   UNL     1       0.509  -0.776   0.686  1.00  0.00    -0.248 OA
ATOM      4  N   UNL     1       0.130   0.381  -1.312  1.00  0.00    -0.307 N 
ATOM      5  H   UNL     1       2.764   0.697  -1.118  1.00  0.00     0.172 HD
ATOM      6  H   UNL     1       0.589   0.788  -2.156  1.00  0.00     0.171 HD
ENDROOT
BRANCH   1   7
ATOM      7  C   UNL     1       3.243   0.119   0.889  1.00  0.00     0.085 A 
ATOM      8  C   UNL     1       4.592  -0.225   0.663  1.00  0.00     0.142 A 
ATOM      9  C   UNL     1       5.456  -0.395   1.763  1.00  0.00     0.048 A 
ATOM     10  C   UNL     1       4.986  -0.215   3.066  1.00  0.00     0.004 A 
ATOM     11  C   UNL     1       2.790   0.316   2.207  1.00  0.00     0.030 A 
ATOM     12  C   UNL     1       3.657   0.142   3.287  1.00  0.00     0.002 A 
BRANCH   8  13
ATOM     13  O   UNL     1       5.032  -0.399  -0.659  1.00  0.00    -0.495 OA
ATOM     14  C   UNL     1       6.362  -0.749  -1.028  1.00  0.00     0.278 C 
ENDBRANCH   8  13
ENDBRANCH   1   7
BRANCH   4  15
ATOM     15  C   UNL     1      -1.300   0.208  -1.318  1.00  0.00     0.046 A 
ATOM     16  C   UNL     1      -2.047   0.469  -0.155  1.00  0.00     0.030 A 
ATOM     17  C   UNL     1      -1.971  -0.171  -2.502  1.00  0.00    -0.027 A 
ATOM     18  C   UNL     1      -3.445   0.339  -0.149  1.00  0.00    -0.043 A 
ATOM     19  C   UNL     1      -3.369  -0.287  -2.497  1.00  0.00     0.006 A 
ATOM     20  C   UNL     1      -4.098  -0.042  -1.333  1.00  0.00     0.004 A 
ATOM     21  C   UNL     1      -1.212  -0.440  -3.773  1.00  0.00     0.046 C 
BRANCH  18  22
ATOM     22  C   UNL     1      -4.228   0.622   1.120  1.00  0.00     0.013 C 
ATOM     23  C   UNL     1      -4.986  -0.624   1.593  1.00  0.00     0.012 C 
ATOM     24  C   UNL     1      -5.181   1.808   0.928  1.00  0.00     0.012 C 
ENDBRANCH  18  22
ENDBRANCH   4  15
TORSDOF 4
