REMARK SMILES Clc1ccc(-c2c(C3=[NH+]CCCN3)nnn2-c2ccc(Cl)cc2)cc1
REMARK SMILES IDX 7 1 6 2 14 3 16 4 15 5 8 6 9 7 10 8 13 9 11 10 12 11 5 14
REMARK SMILES IDX 4 15 24 16 3 17 25 18 2 19 1 20 17 21 18 22 23 23 19 24
REMARK SMILES IDX 22 25 20 26 21 27
REMARK H PARENT 9 12 13 13
ROOT
ATOM      1  C   UNL     1       1.002  -1.296  -0.195  1.00  0.00     0.202 A 
ATOM      2  C   UNL     1      -0.225  -0.690   0.034  1.00  0.00     0.110 A 
ATOM      3  N   UNL     1       0.818  -2.631  -0.148  1.00  0.00    -0.121 NA
ATOM      4  N   UNL     1      -1.115  -1.691   0.217  1.00  0.00    -0.212 N 
ATOM      5  N   UNL     1      -0.465  -2.840   0.106  1.00  0.00    -0.061 NA
ENDROOT
BRANCH   1   6
ATOM      6  C   UNL     1       2.319  -0.665  -0.420  1.00  0.00     0.298 C 
ATOM      7  N   UNL     1       2.651   0.434   0.205  1.00  0.00    -0.273 N 
ATOM      8  C   UNL     1       3.918   1.125  -0.043  1.00  0.00     0.238 C 
ATOM      9  N   UNL     1       3.277  -1.334  -1.258  1.00  0.00    -0.273 N 
ATOM     10  C   UNL     1       5.034   0.127  -0.358  1.00  0.00     0.092 C 
ATOM     11  C   UNL     1       4.601  -0.771  -1.516  1.00  0.00     0.238 C 
ATOM     12  H   UNL     1       2.001   0.864   0.900  1.00  0.00     0.305 HD
ATOM     13  H   UNL     1       2.989  -2.185  -1.791  1.00  0.00     0.305 HD
ENDBRANCH   1   6
BRANCH   2  14
ATOM     14  C   UNL     1      -0.526   0.758   0.069  1.00  0.00     0.003 A 
ATOM     15  C   UNL     1      -1.251   1.305   1.140  1.00  0.00     0.012 A 
ATOM     16  C   UNL     1      -0.086   1.599  -0.965  1.00  0.00     0.012 A 
ATOM     17  C   UNL     1      -1.534   2.674   1.173  1.00  0.00     0.021 A 
ATOM     18  C   UNL     1      -0.368   2.968  -0.929  1.00  0.00     0.021 A 
ATOM     19  C   UNL     1      -1.093   3.506   0.139  1.00  0.00     0.041 A 
ATOM     20  Cl  UNL     1      -1.448   5.223   0.182  1.00  0.00    -0.084 Cl
ENDBRANCH   2  14
BRANCH   4  21
ATOM     21  C   UNL     1      -2.534  -1.607   0.426  1.00  0.00     0.067 A 
ATOM     22  C   UNL     1      -3.324  -0.711  -0.315  1.00  0.00     0.030 A 
ATOM     23  C   UNL     1      -3.155  -2.464   1.349  1.00  0.00     0.030 A 
ATOM     24  C   UNL     1      -4.705  -0.648  -0.108  1.00  0.00     0.023 A 
ATOM     25  C   UNL     1      -4.536  -2.401   1.554  1.00  0.00     0.023 A 
ATOM     26  C   UNL     1      -5.312  -1.490   0.830  1.00  0.00     0.041 A 
ATOM     27  Cl  UNL     1      -7.045  -1.412   1.088  1.00  0.00    -0.084 Cl
ENDBRANCH   4  21
TORSDOF 3
