REMARK SMILES Nc1ccc(S(=O)(=O)N=c2cnc3ccccc3[nH]2)cc1
REMARK SMILES IDX 6 1 7 2 8 3 9 4 10 5 19 6 18 7 11 8 17 9 13 10 12 11 16 12
REMARK SMILES IDX 14 13 15 14 5 16 4 17 20 18 3 19 21 20 2 21 1 22
REMARK H PARENT 19 15 1 23 1 24
ROOT
ATOM      1  S   UNL     1       0.936   0.854  -0.207  1.00  0.00     0.284 S 
ATOM      2  O   UNL     1       0.672   1.216  -1.642  1.00  0.00    -0.199 OA
ATOM      3  O   UNL     1       0.546   2.005   0.678  1.00  0.00    -0.199 OA
ENDROOT
BRANCH   1   4
ATOM      4  N   UNL     1       0.029  -0.562   0.226  1.00  0.00    -0.140 NA
BRANCH   4   5
ATOM      5  C   UNL     1      -1.267  -0.686   0.198  1.00  0.00     0.162 A 
ATOM      6  N   UNL     1      -2.091   0.336  -0.194  1.00  0.00    -0.336 N 
ATOM      7  C   UNL     1      -3.446   0.176  -0.213  1.00  0.00     0.066 A 
ATOM      8  C   UNL     1      -1.832  -1.908   0.584  1.00  0.00     0.159 A 
ATOM      9  C   UNL     1      -4.294   1.220  -0.614  1.00  0.00     0.028 A 
ATOM     10  C   UNL     1      -4.002  -1.060   0.178  1.00  0.00     0.087 A 
ATOM     11  N   UNL     1      -3.180  -2.068   0.565  1.00  0.00    -0.251 NA
ATOM     12  C   UNL     1      -5.680   1.032  -0.625  1.00  0.00     0.002 A 
ATOM     13  C   UNL     1      -5.390  -1.242   0.165  1.00  0.00     0.030 A 
ATOM     14  C   UNL     1      -6.226  -0.196  -0.237  1.00  0.00     0.002 A 
ATOM     15  H   UNL     1      -1.699   1.258  -0.487  1.00  0.00     0.168 HD
ENDBRANCH   4   5
ENDBRANCH   1   4
BRANCH   1  16
ATOM     16  C   UNL     1       2.650   0.511   0.003  1.00  0.00     0.089 A 
ATOM     17  C   UNL     1       3.271   0.750   1.236  1.00  0.00     0.024 A 
ATOM     18  C   UNL     1       3.395  -0.029  -1.054  1.00  0.00     0.024 A 
ATOM     19  C   UNL     1       4.630   0.466   1.407  1.00  0.00     0.027 A 
ATOM     20  C   UNL     1       4.753  -0.314  -0.884  1.00  0.00     0.027 A 
ATOM     21  C   UNL     1       5.378  -0.067   0.347  1.00  0.00     0.031 A 
BRANCH  21  22
ATOM     22  N   UNL     1       6.767  -0.359   0.521  1.00  0.00    -0.399 N 
ATOM     23  H   UNL     1       7.332  -0.757  -0.262  1.00  0.00     0.156 HD
ATOM     24  H   UNL     1       7.240  -0.179   1.435  1.00  0.00     0.156 HD
ENDBRANCH  21  22
ENDBRANCH   1  16
TORSDOF 4
