REMARK SMILES COc1ccc(C=C2C(=O)OC(C)(C)OC2=O)cc1OC
REMARK SMILES IDX 3 1 4 2 5 3 6 4 18 5 19 6 2 7 1 8 20 9 21 10 7 11 8 12 9 13
REMARK SMILES IDX 16 14 11 15 15 16 12 17 10 18 17 19 13 20 14 21
REMARK H PARENT
ROOT
ATOM      1  C   UNL     1      -2.946  -0.691  -2.117  1.00  0.00     0.160 A 
ATOM      2  C   UNL     1      -2.040   0.135  -2.811  1.00  0.00     0.051 A 
ATOM      3  C   UNL     1      -1.075   0.864  -2.115  1.00  0.00     0.012 A 
ATOM      4  C   UNL     1      -0.986   0.767  -0.721  1.00  0.00    -0.021 A 
ATOM      5  C   UNL     1      -1.901  -0.030  -0.023  1.00  0.00     0.058 A 
ATOM      6  C   UNL     1      -2.878  -0.771  -0.716  1.00  0.00     0.161 A 
ENDROOT
BRANCH   1   7
ATOM      7  O   UNL     1      -3.929  -1.442  -2.781  1.00  0.00    -0.493 OA
ATOM      8  C   UNL     1      -4.114  -1.458  -4.193  1.00  0.00     0.278 C 
ENDBRANCH   1   7
BRANCH   6   9
ATOM      9  O   UNL     1      -3.800  -1.595  -0.051  1.00  0.00    -0.493 OA
ATOM     10  C   UNL     1      -3.849  -1.775   1.361  1.00  0.00     0.278 C 
ENDBRANCH   6   9
BRANCH   4  11
ATOM     11  C   UNL     1      -0.001   1.571   0.023  1.00  0.00     0.031 C 
BRANCH  11  12
ATOM     12  C   UNL     1       1.337   1.391  -0.019  1.00  0.00     0.145 C 
ATOM     13  C   UNL     1       2.237   2.307   0.712  1.00  0.00     0.348 C 
ATOM     14  C   UNL     1       2.021   0.301  -0.759  1.00  0.00     0.348 C 
ATOM     15  O   UNL     1       3.605   2.031   0.772  1.00  0.00    -0.419 OA
ATOM     16  O   UNL     1       3.405   0.152  -0.628  1.00  0.00    -0.419 OA
ATOM     17  C   UNL     1       4.141   0.747   0.444  1.00  0.00     0.252 C 
ATOM     18  O   UNL     1       1.798   3.360   1.249  1.00  0.00    -0.246 OA
ATOM     19  O   UNL     1       1.396  -0.489  -1.513  1.00  0.00    -0.246 OA
ATOM     20  C   UNL     1       5.596   0.917   0.008  1.00  0.00     0.106 C 
ATOM     21  C   UNL     1       4.065  -0.163   1.676  1.00  0.00     0.106 C 
ENDBRANCH  11  12
ENDBRANCH   4  11
TORSDOF 4
