REMARK SMILES O=C(Cn1ccc(=O)[nH]c1=O)Nc1ccc(C(=O)[O-])c(O)c1
REMARK SMILES IDX 12 1 2 2 1 3 13 5 16 6 15 7 20 8 14 9 22 10 17 11 18 12
REMARK SMILES IDX 19 13 21 14 3 16 4 17 5 18 10 19 6 20 9 21 7 22 11 23 8 25
REMARK H PARENT 12 4 21 15 9 24
ROOT
ATOM      1  N   UNL     1       0.008  -0.029   1.433  1.00  0.00    -0.324 N 
ATOM      2  C   UNL     1      -0.650   1.246   1.475  1.00  0.00     0.244 C 
ATOM      3  O   UNL     1      -0.001   2.311   1.288  1.00  0.00    -0.273 OA
ATOM      4  H   UNL     1      -0.478  -0.842   1.875  1.00  0.00     0.170 HD
ENDROOT
BRANCH   1   5
ATOM      5  C   UNL     1       1.329  -0.237   0.903  1.00  0.00     0.044 A 
ATOM      6  C   UNL     1       3.914  -0.712  -0.132  1.00  0.00     0.039 A 
ATOM      7  C   UNL     1       3.081   0.268  -0.700  1.00  0.00     0.016 A 
ATOM      8  C   UNL     1       3.413  -1.501   0.932  1.00  0.00     0.126 A 
ATOM      9  C   UNL     1       1.801   0.499  -0.194  1.00  0.00     0.027 A 
ATOM     10  C   UNL     1       2.136  -1.246   1.445  1.00  0.00     0.073 A 
BRANCH   6  11
ATOM     11  C   UNL     1       5.292  -0.860  -0.650  1.00  0.00     0.075 C 
ATOM     12  O   UNL     1       5.536  -0.646  -1.867  1.00  0.00    -0.545 OA
ATOM     13  O   UNL     1       6.343  -1.168   0.204  1.00  0.00    -0.545 OA
ENDBRANCH   6  11
BRANCH   8  14
ATOM     14  O   UNL     1       4.133  -2.565   1.481  1.00  0.00    -0.507 OA
ATOM     15  H   UNL     1       4.979  -2.935   1.071  1.00  0.00     0.293 HD
ENDBRANCH   8  14
ENDBRANCH   1   5
BRANCH   2  16
ATOM     16  C   UNL     1      -2.121   1.319   1.752  1.00  0.00     0.227 C 
BRANCH  16  17
ATOM     17  N   UNL     1      -2.878   0.861   0.577  1.00  0.00    -0.291 N 
ATOM     18  C   UNL     1      -3.295  -0.439   0.515  1.00  0.00     0.097 A 
ATOM     19  C   UNL     1      -3.126   1.705  -0.476  1.00  0.00     0.328 A 
ATOM     20  C   UNL     1      -3.988  -0.908  -0.598  1.00  0.00     0.090 A 
ATOM     21  N   UNL     1      -3.804   1.258  -1.569  1.00  0.00    -0.274 N 
ATOM     22  C   UNL     1      -4.237  -0.028  -1.647  1.00  0.00     0.253 A 
ATOM     23  O   UNL     1      -2.727   2.902  -0.445  1.00  0.00    -0.248 OA
ATOM     24  H   UNL     1      -3.990   1.912  -2.364  1.00  0.00     0.175 HD
ATOM     25  O   UNL     1      -4.862  -0.425  -2.666  1.00  0.00    -0.269 OA
ENDBRANCH  16  17
ENDBRANCH   2  16
TORSDOF 5
