REMARK SMILES Cn1cnc([N+](=O)[O-])c1Sc1nnc(-c2cccnc2)n1C
REMARK SMILES IDX 1 1 2 2 3 3 4 4 5 5 9 6 10 7 11 8 12 9 21 10 13 11 14 12
REMARK SMILES IDX 22 13 15 14 16 15 20 16 17 17 19 18 18 19 6 20 7 21 8 22
REMARK H PARENT
ROOT
ATOM      1  C   UNL     1       3.158   1.290   0.588  1.00  0.00     0.154 C 
ATOM      2  N   UNL     1       3.270  -0.164   0.599  1.00  0.00    -0.302 N 
ATOM      3  C   UNL     1       3.754  -0.910   1.613  1.00  0.00     0.348 A 
ATOM      4  N   UNL     1       3.690  -2.236   1.364  1.00  0.00    -0.024 NA
ATOM      5  C   UNL     1       3.130  -2.313   0.140  1.00  0.00     0.396 A 
ATOM      6  C   UNL     1       2.854  -1.042  -0.333  1.00  0.00     0.185 A 
ENDROOT
BRANCH   6   7
ATOM      7  S   UNL     1       2.091  -0.605  -1.902  1.00  0.00    -0.023 SA
BRANCH   7   8
ATOM      8  C   UNL     1       0.427  -0.731  -1.243  1.00  0.00     0.197 A 
ATOM      9  N   UNL     1      -0.213  -1.904  -1.082  1.00  0.00    -0.122 NA
ATOM     10  N   UNL     1      -0.350   0.311  -0.888  1.00  0.00    -0.305 N 
ATOM     11  N   UNL     1      -1.416  -1.623  -0.604  1.00  0.00    -0.129 NA
ATOM     12  C   UNL     1      -1.493  -0.283  -0.476  1.00  0.00     0.165 A 
ATOM     13  C   UNL     1      -0.058   1.737  -1.034  1.00  0.00     0.154 C 
BRANCH  12  14
ATOM     14  C   UNL     1      -2.707   0.407   0.011  1.00  0.00     0.038 A 
ATOM     15  C   UNL     1      -3.976  -0.082  -0.334  1.00  0.00     0.015 A 
ATOM     16  C   UNL     1      -2.628   1.521   0.863  1.00  0.00     0.123 A 
ATOM     17  C   UNL     1      -5.125   0.556   0.137  1.00  0.00     0.021 A 
ATOM     18  N   UNL     1      -3.762   2.122   1.312  1.00  0.00    -0.264 NA
ATOM     19  C   UNL     1      -4.996   1.672   0.964  1.00  0.00     0.111 A 
ENDBRANCH  12  14
ENDBRANCH   7   8
ENDBRANCH   6   7
BRANCH   5  20
ATOM     20  N   UNL     1       2.879  -3.557  -0.526  1.00  0.00    -0.021 N 
ATOM     21  O   UNL     1       2.424  -3.587  -1.688  1.00  0.00    -0.358 OA
ATOM     22  O   UNL     1       3.176  -4.740   0.108  1.00  0.00    -0.358 OA
ENDBRANCH   5  20
TORSDOF 4
