REMARK SMILES CC[C@@]1(O)C(=O)OCc2c1cc1n(c2=O)Cc2cc3c(NC(=O)C[NH3+])cccc3nc2-1
REMARK SMILES IDX 22 1 21 2 23 3 24 5 25 6 20 10 19 11 26 12 18 13 29 14 27 15
REMARK SMILES IDX 17 16 28 17 30 18 16 19 31 20 13 21 12 22 14 23 11 24 9 25
REMARK SMILES IDX 10 26 8 27 3 28 7 29 5 30 15 31 6 32 2 33 1 34 4 35
REMARK H PARENT 21 4 25 7 25 8 25 9 4 36
ROOT
ATOM      1  C   UNL     1       6.240  -0.309   0.850  1.00  0.00     0.279 C 
ATOM      2  N   UNL     1       5.123  -0.571  -0.013  1.00  0.00    -0.321 N 
ATOM      3  O   UNL     1       6.246  -0.735   2.037  1.00  0.00    -0.268 OA
ATOM      4  H   UNL     1       5.082  -0.074  -0.931  1.00  0.00     0.170 HD
ENDROOT
BRANCH   1   5
ATOM      5  C   UNL     1       7.375   0.546   0.369  1.00  0.00     0.360 C 
BRANCH   5   6
ATOM      6  N   UNL     1       7.058   1.963   0.535  1.00  0.00    -0.350 N 
ATOM      7  H   UNL     1       6.209   2.210  -0.024  1.00  0.00     0.344 HD
ATOM      8  H   UNL     1       7.865   2.536   0.196  1.00  0.00     0.344 HD
ATOM      9  H   UNL     1       6.891   2.178   1.546  1.00  0.00     0.344 HD
ENDBRANCH   5   6
ENDBRANCH   1   5
BRANCH   2  10
ATOM     10  C   UNL     1       4.046  -1.455   0.343  1.00  0.00     0.050 A 
ATOM     11  C   UNL     1       2.698  -1.092   0.114  1.00  0.00     0.024 A 
ATOM     12  C   UNL     1       4.335  -2.724   0.874  1.00  0.00     0.027 A 
ATOM     13  C   UNL     1       2.339   0.180  -0.394  1.00  0.00     0.020 A 
ATOM     14  C   UNL     1       1.658  -2.024   0.429  1.00  0.00     0.073 A 
ATOM     15  C   UNL     1       3.312  -3.622   1.181  1.00  0.00     0.004 A 
ATOM     16  C   UNL     1       0.990   0.457  -0.587  1.00  0.00     0.000 A 
ATOM     17  C   UNL     1       1.979  -3.276   0.959  1.00  0.00     0.029 A 
ATOM     18  N   UNL     1       0.347  -1.698   0.223  1.00  0.00    -0.246 NA
ATOM     19  C   UNL     1       0.329   1.706  -1.094  1.00  0.00     0.164 C 
ATOM     20  C   UNL     1       0.039  -0.480  -0.281  1.00  0.00     0.093 A 
ATOM     21  N   UNL     1      -1.095   1.349  -1.034  1.00  0.00    -0.302 N 
ATOM     22  C   UNL     1      -1.252   0.092  -0.566  1.00  0.00     0.071 A 
ATOM     23  C   UNL     1      -2.155   2.137  -1.361  1.00  0.00     0.258 A 
ATOM     24  C   UNL     1      -2.511  -0.471  -0.393  1.00  0.00     0.036 A 
ATOM     25  C   UNL     1      -3.462   1.616  -1.232  1.00  0.00     0.062 A 
ATOM     26  C   UNL     1      -3.642   0.294  -0.744  1.00  0.00     0.009 A 
ATOM     27  C   UNL     1      -4.672   2.472  -1.510  1.00  0.00     0.275 C 
ATOM     28  C   UNL     1      -5.046  -0.262  -0.515  1.00  0.00     0.187 C 
ATOM     29  O   UNL     1      -5.757   1.677  -1.979  1.00  0.00    -0.458 OA
ATOM     30  C   UNL     1      -6.018   0.402  -1.474  1.00  0.00     0.343 C 
ATOM     31  O   UNL     1      -1.965   3.316  -1.765  1.00  0.00    -0.269 OA
ATOM     32  O   UNL     1      -7.068  -0.197  -1.831  1.00  0.00    -0.248 OA
BRANCH  28  33
ATOM     33  C   UNL     1      -5.451   0.030   0.950  1.00  0.00     0.049 C 
ATOM     34  C   UNL     1      -6.815  -0.547   1.339  1.00  0.00     0.008 C 
ENDBRANCH  28  33
BRANCH  28  35
ATOM     35  O   UNL     1      -5.056  -1.656  -0.726  1.00  0.00    -0.374 OA
ATOM     36  H   UNL     1      -4.773  -1.824  -1.664  1.00  0.00     0.212 HD
ENDBRANCH  28  35
ENDBRANCH   2  10
TORSDOF 5
