REMARK SMILES Nc1ccc(C(=O)Nc2cccc(N)c2)cc1
REMARK SMILES IDX 6 1 7 2 8 3 5 5 2 6 3 7 17 8 4 9 16 10 1 11 9 14 10 15 15 16
REMARK SMILES IDX 11 17 13 18 12 19 14 20
REMARK H PARENT 8 4 1 12 1 13 14 21 14 22
ROOT
ATOM      1  C   UNL     1       0.373   0.774  -0.308  1.00  0.00     0.255 C 
ATOM      2  O   UNL     1      -0.031   1.948  -0.532  1.00  0.00    -0.269 OA
ATOM      3  N   UNL     1      -0.578  -0.298  -0.166  1.00  0.00    -0.322 N 
ATOM      4  H   UNL     1      -0.246  -1.236   0.148  1.00  0.00     0.170 HD
ENDROOT
BRANCH   1   5
ATOM      5  C   UNL     1       1.831   0.531  -0.188  1.00  0.00     0.040 A 
ATOM      6  C   UNL     1       4.612   0.115   0.026  1.00  0.00     0.031 A 
ATOM      7  C   UNL     1       4.113   1.142  -0.784  1.00  0.00     0.026 A 
ATOM      8  C   UNL     1       3.720  -0.698   0.738  1.00  0.00     0.026 A 
ATOM      9  C   UNL     1       2.735   1.352  -0.887  1.00  0.00     0.016 A 
ATOM     10  C   UNL     1       2.341  -0.491   0.636  1.00  0.00     0.016 A 
BRANCH   6  11
ATOM     11  N   UNL     1       6.022  -0.099   0.132  1.00  0.00    -0.399 N 
ATOM     12  H   UNL     1       6.403  -0.861   0.735  1.00  0.00     0.156 HD
ATOM     13  H   UNL     1       6.695   0.503  -0.393  1.00  0.00     0.156 HD
ENDBRANCH   6  11
ENDBRANCH   1   5
BRANCH   3  14
ATOM     14  C   UNL     1      -1.993  -0.145  -0.368  1.00  0.00     0.043 A 
ATOM     15  C   UNL     1      -2.504   0.655  -1.406  1.00  0.00     0.026 A 
ATOM     16  C   UNL     1      -2.884  -0.861   0.446  1.00  0.00     0.051 A 
ATOM     17  C   UNL     1      -3.884   0.765  -1.596  1.00  0.00     0.004 A 
ATOM     18  C   UNL     1      -4.270  -0.751   0.257  1.00  0.00     0.033 A 
ATOM     19  C   UNL     1      -4.766   0.069  -0.765  1.00  0.00     0.025 A 
BRANCH  18  20
ATOM     20  N   UNL     1      -5.171  -1.473   1.100  1.00  0.00    -0.399 N 
ATOM     21  H   UNL     1      -4.812  -2.088   1.865  1.00  0.00     0.156 HD
ATOM     22  H   UNL     1      -6.204  -1.399   0.967  1.00  0.00     0.156 HD
ENDBRANCH  18  20
ENDBRANCH   3  14
TORSDOF 4
