REMARK SMILES O=C(Nc1cccc2ccccc12)c1ccccc1
REMARK SMILES IDX 1 1 2 2 3 3 14 5 15 6 19 7 16 8 18 9 17 10 4 11 5 12 13 13
REMARK SMILES IDX 6 14 12 15 8 16 7 17 11 18 9 19 10 20
REMARK H PARENT 3 4
ROOT
ATOM      1  O   UNL     1       0.604   0.453  -1.639  1.00  0.00    -0.269 OA
ATOM      2  C   UNL     1       1.123   0.445  -0.489  1.00  0.00     0.255 C 
ATOM      3  N   UNL     1       0.327   0.809   0.651  1.00  0.00    -0.321 N 
ATOM      4  H   UNL     1       0.811   1.184   1.497  1.00  0.00     0.170 HD
ENDROOT
BRANCH   2   5
ATOM      5  C   UNL     1       2.551   0.077  -0.336  1.00  0.00     0.040 A 
ATOM      6  C   UNL     1       3.418   0.133  -1.444  1.00  0.00     0.014 A 
ATOM      7  C   UNL     1       3.059  -0.357   0.903  1.00  0.00     0.014 A 
ATOM      8  C   UNL     1       4.765  -0.219  -1.309  1.00  0.00     0.001 A 
ATOM      9  C   UNL     1       4.407  -0.709   1.032  1.00  0.00     0.001 A 
ATOM     10  C   UNL     1       5.259  -0.638  -0.072  1.00  0.00     0.000 A 
ENDBRANCH   2   5
BRANCH   3  11
ATOM     11  C   UNL     1      -1.091   1.011   0.555  1.00  0.00     0.049 A 
ATOM     12  C   UNL     1      -1.608   2.280   0.848  1.00  0.00     0.027 A 
ATOM     13  C   UNL     1      -1.974  -0.035   0.184  1.00  0.00     0.005 A 
ATOM     14  C   UNL     1      -2.974   2.538   0.731  1.00  0.00     0.003 A 
ATOM     15  C   UNL     1      -1.519  -1.351  -0.034  1.00  0.00     0.011 A 
ATOM     16  C   UNL     1      -3.362   0.240   0.061  1.00  0.00    -0.016 A 
ATOM     17  C   UNL     1      -3.848   1.527   0.330  1.00  0.00     0.009 A 
ATOM     18  C   UNL     1      -2.414  -2.358  -0.406  1.00  0.00     0.001 A 
ATOM     19  C   UNL     1      -4.248  -0.782  -0.316  1.00  0.00     0.009 A 
ATOM     20  C   UNL     1      -3.772  -2.073  -0.552  1.00  0.00     0.001 A 
ENDBRANCH   3  11
TORSDOF 2
