REMARK SMILES O=C([O-])CCC(=O)c1ccc2ccc3cccc4ccc1c2c34
REMARK SMILES IDX 4 1 2 2 1 3 3 4 5 5 6 6 7 7 8 8 9 9 21 10 10 11 20 12 22 13
REMARK SMILES IDX 11 14 19 15 23 16 12 17 18 18 14 19 13 20 17 21 15 22 16 23
REMARK H PARENT
ROOT
ATOM      1  C   UNL     1       4.285  -0.282  -0.554  1.00  0.00     0.061 C 
ENDROOT
BRANCH   1   2
ATOM      2  C   UNL     1       3.369   0.578  -1.372  1.00  0.00     0.042 C 
ATOM      3  O   UNL     1       3.148   0.298  -2.580  1.00  0.00    -0.550 OA
ATOM      4  O   UNL     1       2.756   1.685  -0.800  1.00  0.00    -0.550 OA
ENDBRANCH   1   2
BRANCH   1   5
ATOM      5  C   UNL     1       3.701  -1.680  -0.319  1.00  0.00     0.087 C 
BRANCH   5   6
ATOM      6  C   UNL     1       2.510  -1.634   0.600  1.00  0.00     0.163 C 
ATOM      7  O   UNL     1       2.689  -1.737   1.843  1.00  0.00    -0.294 OA
BRANCH   6   8
ATOM      8  C   UNL     1       1.139  -1.441   0.071  1.00  0.00     0.025 A 
ATOM      9  C   UNL     1       0.666  -2.343  -0.896  1.00  0.00     0.013 A 
ATOM     10  C   UNL     1       0.290  -0.398   0.526  1.00  0.00    -0.006 A 
ATOM     11  C   UNL     1      -0.626  -2.235  -1.408  1.00  0.00     0.009 A 
ATOM     12  C   UNL     1       0.720   0.566   1.464  1.00  0.00     0.010 A 
ATOM     13  C   UNL     1      -1.024  -0.296   0.002  1.00  0.00    -0.002 A 
ATOM     14  C   UNL     1      -1.480  -1.221  -0.965  1.00  0.00    -0.017 A 
ATOM     15  C   UNL     1      -0.135   1.583   1.893  1.00  0.00     0.009 A 
ATOM     16  C   UNL     1      -1.887   0.735   0.439  1.00  0.00    -0.003 A 
ATOM     17  C   UNL     1      -2.783  -1.115  -1.475  1.00  0.00     0.009 A 
ATOM     18  C   UNL     1      -1.439   1.675   1.392  1.00  0.00    -0.017 A 
ATOM     19  C   UNL     1      -3.199   0.830  -0.082  1.00  0.00    -0.017 A 
ATOM     20  C   UNL     1      -3.636  -0.100  -1.035  1.00  0.00     0.009 A 
ATOM     21  C   UNL     1      -2.301   2.695   1.820  1.00  0.00     0.009 A 
ATOM     22  C   UNL     1      -4.047   1.856   0.359  1.00  0.00     0.009 A 
ATOM     23  C   UNL     1      -3.598   2.782   1.306  1.00  0.00     0.001 A 
ENDBRANCH   6   8
ENDBRANCH   5   6
ENDBRANCH   1   5
TORSDOF 4
