REMARK SMILES OC1(Cc2ccccc2)CC[NH2+]CC1
REMARK SMILES IDX 11 1 12 2 13 3 10 4 2 5 14 6 1 9 3 11 4 12 5 13 9 14 6 15
REMARK SMILES IDX 8 16 7 17
REMARK H PARENT 12 7 12 8 1 10
ROOT
ATOM      1  C   UNL     1      -2.208   1.143   0.913  1.00  0.00     0.263 C 
ATOM      2  N   UNL     1      -3.316   0.691   0.062  1.00  0.00    -0.346 N 
ATOM      3  C   UNL     1      -3.206  -0.743  -0.240  1.00  0.00     0.263 C 
ATOM      4  C   UNL     1      -0.850   0.920   0.228  1.00  0.00     0.097 C 
ATOM      5  C   UNL     1      -0.643  -0.551  -0.232  1.00  0.00     0.079 C 
ATOM      6  C   UNL     1      -1.901  -1.053  -0.989  1.00  0.00     0.097 C 
ATOM      7  H   UNL     1      -4.217   0.859   0.567  1.00  0.00     0.346 HD
ATOM      8  H   UNL     1      -3.330   1.242  -0.828  1.00  0.00     0.346 HD
ENDROOT
BRANCH   5   9
ATOM      9  O   UNL     1      -0.376  -1.387   0.873  1.00  0.00    -0.389 OA
ATOM     10  H   UNL     1      -1.131  -1.334   1.510  1.00  0.00     0.211 HD
ENDBRANCH   5   9
BRANCH   5  11
ATOM     11  C   UNL     1       0.570  -0.641  -1.196  1.00  0.00     0.071 C 
BRANCH  11  12
ATOM     12  C   UNL     1       1.876  -0.249  -0.544  1.00  0.00    -0.045 A 
ATOM     13  C   UNL     1       2.364   1.064  -0.661  1.00  0.00     0.004 A 
ATOM     14  C   UNL     1       2.607  -1.189   0.203  1.00  0.00     0.004 A 
ATOM     15  C   UNL     1       3.564   1.428  -0.041  1.00  0.00     0.000 A 
ATOM     16  C   UNL     1       3.806  -0.821   0.820  1.00  0.00     0.000 A 
ATOM     17  C   UNL     1       4.284   0.487   0.698  1.00  0.00     0.000 A 
ENDBRANCH  11  12
ENDBRANCH   5  11
TORSDOF 3
