REMARK SMILES Cn1ncc2c(=Nc3ccccc3Cl)[nH]c(Nc3ccccc3Cl)nc21
REMARK SMILES IDX 15 1 16 2 25 3 26 4 5 5 4 6 3 7 2 8 1 9 6 10 17 12 18 14
REMARK SMILES IDX 19 15 23 16 20 17 22 18 21 19 24 20 7 21 8 22 9 23 13 24
REMARK SMILES IDX 10 25 12 26 11 27 14 28
REMARK H PARENT 15 11 17 13
ROOT
ATOM      1  N   UNL     1       0.023  -1.196   1.037  1.00  0.00    -0.310 N 
ATOM      2  C   UNL     1      -1.181  -0.721   0.575  1.00  0.00     0.208 A 
ATOM      3  N   UNL     1      -1.210   0.277  -0.359  1.00  0.00    -0.194 NA
ATOM      4  C   UNL     1      -0.037   0.783  -0.801  1.00  0.00     0.165 A 
ATOM      5  C   UNL     1       1.169   0.343  -0.350  1.00  0.00     0.082 A 
ATOM      6  C   UNL     1       2.090   1.202  -0.938  1.00  0.00     0.149 A 
ATOM      7  N   UNL     1       1.423   2.093  -1.713  1.00  0.00    -0.179 NA
ATOM      8  N   UNL     1       0.127   1.819  -1.637  1.00  0.00    -0.250 N 
ATOM      9  C   UNL     1      -0.922   2.626  -2.246  1.00  0.00     0.176 C 
ATOM     10  C   UNL     1       1.220  -0.701   0.590  1.00  0.00     0.146 A 
ATOM     11  H   UNL     1       0.024  -1.965   1.745  1.00  0.00     0.171 HD
ENDROOT
BRANCH   2  12
ATOM     12  N   UNL     1      -2.407  -1.299   1.052  1.00  0.00    -0.324 N 
ATOM     13  H   UNL     1      -2.352  -2.208   1.563  1.00  0.00     0.170 HD
BRANCH  12  14
ATOM     14  C   UNL     1      -3.705  -0.734   0.796  1.00  0.00     0.060 A 
ATOM     15  C   UNL     1      -3.911   0.654   0.892  1.00  0.00     0.028 A 
ATOM     16  C   UNL     1      -4.800  -1.572   0.500  1.00  0.00     0.064 A 
ATOM     17  C   UNL     1      -5.178   1.199   0.667  1.00  0.00     0.002 A 
ATOM     18  C   UNL     1      -6.066  -1.016   0.277  1.00  0.00     0.023 A 
ATOM     19  C   UNL     1      -6.253   0.365   0.358  1.00  0.00     0.002 A 
ATOM     20  Cl  UNL     1      -4.607  -3.315   0.366  1.00  0.00    -0.082 Cl
ENDBRANCH  12  14
ENDBRANCH   2  12
BRANCH  10  21
ATOM     21  N   UNL     1       2.326  -1.207   1.065  1.00  0.00    -0.229 NA
BRANCH  21  22
ATOM     22  C   UNL     1       3.667  -0.944   0.632  1.00  0.00     0.084 A 
ATOM     23  C   UNL     1       4.069  -1.296  -0.667  1.00  0.00     0.030 A 
ATOM     24  C   UNL     1       4.613  -0.435   1.537  1.00  0.00     0.066 A 
ATOM     25  C   UNL     1       5.390  -1.092  -1.073  1.00  0.00     0.002 A 
ATOM     26  C   UNL     1       5.936  -0.233   1.123  1.00  0.00     0.023 A 
ATOM     27  C   UNL     1       6.322  -0.557  -0.180  1.00  0.00     0.002 A 
ATOM     28  Cl  UNL     1       4.154  -0.026   3.184  1.00  0.00    -0.082 Cl
ENDBRANCH  21  22
ENDBRANCH  10  21
TORSDOF 4
