REMARK SMILES O[C@@H](c1cc(C(F)(F)F)nc2c(Cl)cc(Cl)cc12)[C@@H]1CCCC[NH2+]1
REMARK SMILES IDX 3 1 4 2 18 3 5 4 17 5 11 6 10 7 15 8 12 9 14 10 16 11 13 12
REMARK SMILES IDX 2 13 19 14 24 15 20 16 23 17 21 18 22 19 1 22 6 24 7 25 8 26
REMARK SMILES IDX 9 27
REMARK H PARENT 24 20 24 21 1 23
ROOT
ATOM      1  C   UNL     1      -1.101  -0.507   0.450  1.00  0.00    -0.002 A 
ATOM      2  C   UNL     1      -1.807  -1.435  -0.338  1.00  0.00     0.040 A 
ATOM      3  C   UNL     1      -1.658   0.792   0.634  1.00  0.00     0.009 A 
ATOM      4  C   UNL     1      -3.030  -1.092  -0.919  1.00  0.00     0.145 A 
ATOM      5  C   UNL     1      -1.032   1.801   1.401  1.00  0.00     0.031 A 
ATOM      6  C   UNL     1      -2.904   1.091   0.019  1.00  0.00     0.090 A 
ATOM      7  N   UNL     1      -3.538   0.151  -0.728  1.00  0.00    -0.242 NA
ATOM      8  C   UNL     1      -1.622   3.059   1.545  1.00  0.00     0.043 A 
ATOM      9  C   UNL     1      -3.487   2.359   0.173  1.00  0.00     0.068 A 
ATOM     10  C   UNL     1      -2.845   3.337   0.934  1.00  0.00     0.043 A 
ATOM     11  Cl  UNL     1      -0.824   4.297   2.499  1.00  0.00    -0.084 Cl
ATOM     12  Cl  UNL     1      -5.028   2.744  -0.584  1.00  0.00    -0.082 Cl
ENDROOT
BRANCH   1  13
ATOM     13  C   UNL     1       0.241  -0.948   1.027  1.00  0.00     0.203 C 
BRANCH  13  14
ATOM     14  C   UNL     1       1.441  -0.285   0.286  1.00  0.00     0.216 C 
ATOM     15  N   UNL     1       2.721  -0.661   0.928  1.00  0.00    -0.341 N 
ATOM     16  C   UNL     1       1.453  -0.696  -1.207  1.00  0.00     0.068 C 
ATOM     17  C   UNL     1       3.874  -0.035   0.262  1.00  0.00     0.260 C 
ATOM     18  C   UNL     1       2.657  -0.091  -1.933  1.00  0.00     0.012 C 
ATOM     19  C   UNL     1       3.955  -0.448  -1.211  1.00  0.00     0.062 C 
ATOM     20  H   UNL     1       2.723  -0.335   1.923  1.00  0.00     0.346 HD
ATOM     21  H   UNL     1       2.838  -1.702   0.921  1.00  0.00     0.346 HD
ENDBRANCH  13  14
BRANCH  13  22
ATOM     22  O   UNL     1       0.272  -0.667   2.405  1.00  0.00    -0.382 OA
ATOM     23  H   UNL     1       0.780  -1.395   2.851  1.00  0.00     0.211 HD
ENDBRANCH  13  22
ENDBRANCH   1  13
BRANCH   4  24
ATOM     24  C   UNL     1      -3.773  -2.085  -1.764  1.00  0.00     0.433 C 
ATOM     25  F   UNL     1      -4.049  -3.217  -1.019  1.00  0.00    -0.165 F 
ATOM     26  F   UNL     1      -3.001  -2.436  -2.856  1.00  0.00    -0.165 F 
ATOM     27  F   UNL     1      -4.965  -1.545  -2.214  1.00  0.00    -0.165 F 
ENDBRANCH   4  24
TORSDOF 4
