REMARK SMILES Cc1nn(-c2ccccc2)c2c1[C@@H](c1ccc([N+](=O)[O-])cc1)[C@@H](C#N)C(=N)O2
REMARK SMILES IDX 23 1 26 2 28 3 11 4 12 5 2 6 1 7 3 8 4 9 13 10 24 11 25 12
REMARK SMILES IDX 27 13 14 15 15 16 22 17 16 18 21 19 17 20 18 21 19 22 20 23
REMARK SMILES IDX 5 24 6 25 10 26 7 27 9 28 8 29
REMARK H PARENT 27 14
ROOT
ATOM      1  C   UNL     1      -1.526   0.483  -0.830  1.00  0.00     0.190 C 
ATOM      2  C   UNL     1      -0.329   0.797  -1.716  1.00  0.00     0.207 C 
ATOM      3  O   UNL     1       0.972   0.558  -1.252  1.00  0.00    -0.423 OA
ATOM      4  C   UNL     1       1.165  -0.195  -0.096  1.00  0.00     0.228 A 
ATOM      5  C   UNL     1       0.141  -0.806   0.571  1.00  0.00     0.047 A 
ATOM      6  C   UNL     1       0.784  -1.617   1.498  1.00  0.00     0.068 A 
ATOM      7  C   UNL     1       0.154  -2.609   2.420  1.00  0.00     0.069 C 
ATOM      8  N   UNL     1       2.119  -1.415   1.421  1.00  0.00    -0.170 NA
ATOM      9  N   UNL     1       2.347  -0.536   0.454  1.00  0.00    -0.200 N 
ATOM     10  C   UNL     1      -1.278  -0.785   0.056  1.00  0.00     0.083 C 
ENDROOT
BRANCH   1  11
ATOM     11  C   UNL     1      -1.812   1.688  -0.031  1.00  0.00     0.076 C 
ATOM     12  N   UNL     1      -2.040   2.637   0.591  1.00  0.00    -0.197 NA
ENDBRANCH   1  11
BRANCH   2  13
ATOM     13  N   UNL     1      -0.493   1.339  -2.882  1.00  0.00    -0.270 NA
ATOM     14  H   UNL     1      -1.442   1.560  -3.260  1.00  0.00     0.191 HD
ENDBRANCH   2  13
BRANCH  10  15
ATOM     15  C   UNL     1      -2.321  -0.941   1.153  1.00  0.00    -0.038 A 
ATOM     16  C   UNL     1      -2.217  -0.238   2.368  1.00  0.00     0.011 A 
ATOM     17  C   UNL     1      -3.445  -1.754   0.934  1.00  0.00     0.011 A 
ATOM     18  C   UNL     1      -3.202  -0.367   3.350  1.00  0.00     0.086 A 
ATOM     19  C   UNL     1      -4.434  -1.879   1.915  1.00  0.00     0.086 A 
ATOM     20  C   UNL     1      -4.322  -1.188   3.134  1.00  0.00     0.269 A 
BRANCH  20  21
ATOM     21  N   UNL     1      -5.348  -1.310   4.137  1.00  0.00     0.062 N 
ATOM     22  O   UNL     1      -5.193  -0.800   5.267  1.00  0.00    -0.258 OA
ATOM     23  O   UNL     1      -6.518  -1.981   3.865  1.00  0.00    -0.258 OA
ENDBRANCH  20  21
ENDBRANCH  10  15
BRANCH   9  24
ATOM     24  C   UNL     1       3.663  -0.115   0.049  1.00  0.00     0.069 A 
ATOM     25  C   UNL     1       3.872   1.138  -0.558  1.00  0.00     0.028 A 
ATOM     26  C   UNL     1       4.771  -0.948   0.289  1.00  0.00     0.028 A 
ATOM     27  C   UNL     1       5.159   1.534  -0.938  1.00  0.00     0.002 A 
ATOM     28  C   UNL     1       6.055  -0.547  -0.092  1.00  0.00     0.002 A 
ATOM     29  C   UNL     1       6.248   0.691  -0.709  1.00  0.00     0.000 A 
ENDBRANCH   9  24
TORSDOF 5
