REMARK SMILES C=C(O)c1c(OC(C)=O)c(C)c(OC(C)=O)c2c1O[C@@H]1CC(O)=C(C(C)=O)C(=O)[C@]21C
REMARK SMILES IDX 22 1 24 2 28 3 29 4 30 5 31 6 17 7 12 8 10 9 11 10 5 11 4 12
REMARK SMILES IDX 18 13 19 14 20 15 21 16 23 17 25 19 26 20 27 21 13 22 14 23
REMARK SMILES IDX 15 24 16 25 2 26 1 27 3 28 6 30 7 31 8 32 9 33
REMARK H PARENT 23 18 3 29
ROOT
ATOM      1  C   UNL     1       3.584  -1.173  -0.438  1.00  0.00     0.110 C 
ATOM      2  C   UNL     1       3.272  -0.264   0.505  1.00  0.00     0.099 C 
ATOM      3  C   UNL     1       2.491   0.932   0.110  1.00  0.00     0.184 C 
ATOM      4  O   UNL     1       2.557   1.976   0.816  1.00  0.00    -0.293 OA
ATOM      5  C   UNL     1       1.541   0.877  -1.075  1.00  0.00     0.101 C 
ATOM      6  C   UNL     1       1.478   2.228  -1.816  1.00  0.00     0.029 C 
ATOM      7  C   UNL     1       0.184   0.445  -0.583  1.00  0.00     0.056 A 
ATOM      8  C   UNL     1      -0.693   1.104   0.288  1.00  0.00     0.145 A 
ATOM      9  C   UNL     1      -1.885   0.443   0.685  1.00  0.00     0.036 A 
ATOM     10  C   UNL     1      -2.768   1.051   1.746  1.00  0.00     0.052 C 
ATOM     11  C   UNL     1      -2.201  -0.831   0.130  1.00  0.00     0.152 A 
ATOM     12  C   UNL     1      -1.284  -1.476  -0.731  1.00  0.00     0.101 A 
ATOM     13  C   UNL     1      -0.103  -0.804  -1.059  1.00  0.00     0.142 A 
ATOM     14  O   UNL     1       0.894  -1.274  -1.887  1.00  0.00    -0.487 OA
ATOM     15  C   UNL     1       1.897  -0.281  -2.080  1.00  0.00     0.199 C 
ATOM     16  C   UNL     1       3.294  -0.883  -1.887  1.00  0.00     0.122 C 
ENDROOT
BRANCH   1  17
ATOM     17  O   UNL     1       4.207  -2.373  -0.097  1.00  0.00    -0.511 OA
ATOM     18  H   UNL     1       4.463  -3.056  -0.799  1.00  0.00     0.293 HD
ENDBRANCH   1  17
BRANCH   2  19
ATOM     19  C   UNL     1       3.640  -0.440   1.935  1.00  0.00     0.166 C 
ATOM     20  C   UNL     1       4.908  -1.117   2.360  1.00  0.00     0.094 C 
ATOM     21  O   UNL     1       2.862  -0.008   2.828  1.00  0.00    -0.294 OA
ENDBRANCH   2  19
BRANCH   8  22
ATOM     22  O   UNL     1      -0.352   2.371   0.776  1.00  0.00    -0.426 OA
BRANCH  22  23
ATOM     23  C   UNL     1      -1.143   3.508   0.579  1.00  0.00     0.308 C 
ATOM     24  C   UNL     1      -0.761   4.786   1.243  1.00  0.00     0.139 C 
ATOM     25  O   UNL     1      -2.125   3.482  -0.211  1.00  0.00    -0.252 OA
ENDBRANCH  22  23
ENDBRANCH   8  22
BRANCH  12  26
ATOM     26  C   UNL     1      -1.570  -2.820  -1.287  1.00  0.00     0.123 C 
ATOM     27  C   UNL     1      -0.671  -3.800  -1.206  1.00  0.00     0.059 C 
BRANCH  26  28
ATOM     28  O   UNL     1      -2.792  -3.078  -1.905  1.00  0.00    -0.508 OA
ATOM     29  H   UNL     1      -3.477  -2.347  -2.050  1.00  0.00     0.293 HD
ENDBRANCH  26  28
ENDBRANCH  12  26
BRANCH  11  30
ATOM     30  O   UNL     1      -3.389  -1.494   0.468  1.00  0.00    -0.425 OA
BRANCH  30  31
ATOM     31  C   UNL     1      -4.662  -0.964   0.230  1.00  0.00     0.308 C 
ATOM     32  C   UNL     1      -5.862  -1.677   0.752  1.00  0.00     0.139 C 
ATOM     33  O   UNL     1      -4.809   0.067  -0.481  1.00  0.00    -0.252 OA
ENDBRANCH  30  31
ENDBRANCH  11  30
TORSDOF 8
