REMARK SMILES c1cc(-n2nnc3cnccc32)ccn1
REMARK SMILES IDX 4 1 5 2 6 3 7 4 8 5 9 6 10 7 11 8 12 9 3 10 1 11 2 12 15 13
REMARK SMILES IDX 14 14 13 15
REMARK H PARENT
ROOT
ATOM      1  N   UNL     1       0.172   0.154  -0.843  1.00  0.00    -0.213 N 
ATOM      2  N   UNL     1       0.597   0.416  -2.077  1.00  0.00    -0.061 NA
ATOM      3  N   UNL     1       1.927   0.378  -2.148  1.00  0.00    -0.128 NA
ATOM      4  C   UNL     1       2.344   0.084  -0.904  1.00  0.00     0.131 A 
ATOM      5  C   UNL     1       3.639  -0.032  -0.417  1.00  0.00     0.143 A 
ATOM      6  N   UNL     1       3.796  -0.277   0.919  1.00  0.00    -0.262 NA
ATOM      7  C   UNL     1       2.724  -0.397   1.768  1.00  0.00     0.113 A 
ATOM      8  C   UNL     1       1.408  -0.274   1.281  1.00  0.00     0.051 A 
ATOM      9  C   UNL     1       1.268  -0.051  -0.089  1.00  0.00     0.098 A 
ENDROOT
BRANCH   1  10
ATOM     10  C   UNL     1      -1.212   0.126  -0.458  1.00  0.00     0.070 A 
ATOM     11  C   UNL     1      -3.455   1.014  -0.634  1.00  0.00     0.113 A 
ATOM     12  C   UNL     1      -2.107   1.060  -0.998  1.00  0.00     0.048 A 
ATOM     13  N   UNL     1      -3.897   0.058   0.226  1.00  0.00    -0.265 NA
ATOM     14  C   UNL     1      -3.056  -0.872   0.750  1.00  0.00     0.113 A 
ATOM     15  C   UNL     1      -1.700  -0.861   0.413  1.00  0.00     0.048 A 
ENDBRANCH   1  10
TORSDOF 1
