REMARK SMILES CCCCn1cnc2c(=[SH2])[nH]c(=N)[nH]c21
REMARK SMILES IDX 4 1 5 2 11 3 12 4 9 5 14 6 8 7 15 8 7 9 6 10 13 13 10 15
REMARK SMILES IDX 3 18 2 19 1 20
REMARK H PARENT 11 11 14 12 13 14 10 16 10 17
ROOT
ATOM      1  C   UNL     1       1.437  -1.491  -0.871  1.00  0.00     0.125 C 
ENDROOT
BRANCH   1   2
ATOM      2  N   UNL     1       0.283  -1.368   0.020  1.00  0.00    -0.317 N 
ATOM      3  N   UNL     1      -3.096   0.837   0.080  1.00  0.00    -0.320 N 
ATOM      4  C   UNL     1      -2.273   0.987  -1.015  1.00  0.00     0.199 A 
ATOM      5  C   UNL     1      -2.781  -0.025   1.097  1.00  0.00     0.090 A 
ATOM      6  N   UNL     1      -1.112   0.267  -1.107  1.00  0.00    -0.310 N 
ATOM      7  C   UNL     1      -1.595  -0.747   0.986  1.00  0.00     0.135 A 
ATOM      8  C   UNL     1      -0.803  -0.588  -0.101  1.00  0.00     0.143 A 
ATOM      9  N   UNL     1      -1.043  -1.628   1.845  1.00  0.00    -0.232 NA
ATOM     10  C   UNL     1       0.110  -1.984   1.217  1.00  0.00     0.201 A 
ATOM     11  H   UNL     1      -3.980   1.393   0.138  1.00  0.00     0.170 HD
ATOM     12  H   UNL     1      -0.480   0.382  -1.931  1.00  0.00     0.171 HD
BRANCH   4  13
ATOM     13  N   UNL     1      -2.590   1.810  -1.964  1.00  0.00    -0.269 NA
ATOM     14  H   UNL     1      -3.465   2.380  -1.935  1.00  0.00     0.191 HD
ENDBRANCH   4  13
BRANCH   5  15
ATOM     15  S   UNL     1      -3.760  -0.172   2.377  1.00  0.00    -0.190 S 
ATOM     16  H   UNL     1      -3.257  -1.214   3.153  1.00  0.00     0.095 HD
ATOM     17  H   UNL     1      -4.928  -0.698   1.831  1.00  0.00     0.095 HD
ENDBRANCH   5  15
ENDBRANCH   1   2
BRANCH   1  18
ATOM     18  C   UNL     1       2.604  -0.620  -0.390  1.00  0.00     0.022 C 
BRANCH  18  19
ATOM     19  C   UNL     1       2.293   0.878  -0.496  1.00  0.00    -0.002 C 
ATOM     20  C   UNL     1       3.498   1.720  -0.088  1.00  0.00     0.004 C 
ENDBRANCH  18  19
ENDBRANCH   1  18
TORSDOF 5
