REMARK SMILES NC(=O)c1cc2c3ccccc3ccn2c1-c1ccccc1
REMARK SMILES IDX 4 1 5 2 6 3 7 4 8 5 9 6 10 7 11 8 12 9 13 10 14 11 15 12
REMARK SMILES IDX 16 13 2 14 1 15 3 18 17 19 18 20 22 21 19 22 21 23 20 24
REMARK H PARENT 1 16 1 17
ROOT
ATOM      1  C   UNL     1      -0.578   1.617   0.375  1.00  0.00     0.066 A 
ATOM      2  C   UNL     1       0.807   1.659   0.496  1.00  0.00     0.043 A 
ATOM      3  C   UNL     1       1.255   0.376   0.230  1.00  0.00     0.054 A 
ATOM      4  C   UNL     1       2.573  -0.113   0.214  1.00  0.00     0.006 A 
ATOM      5  C   UNL     1       3.689   0.693   0.502  1.00  0.00     0.011 A 
ATOM      6  C   UNL     1       4.974   0.144   0.468  1.00  0.00     0.001 A 
ATOM      7  C   UNL     1       5.159  -1.203   0.148  1.00  0.00     0.001 A 
ATOM      8  C   UNL     1       4.059  -2.015  -0.143  1.00  0.00     0.009 A 
ATOM      9  C   UNL     1       2.761  -1.482  -0.113  1.00  0.00    -0.015 A 
ATOM     10  C   UNL     1       1.648  -2.294  -0.410  1.00  0.00     0.027 A 
ATOM     11  C   UNL     1       0.361  -1.746  -0.376  1.00  0.00     0.092 A 
ATOM     12  N   UNL     1       0.213  -0.434  -0.044  1.00  0.00    -0.315 N 
ATOM     13  C   UNL     1      -0.915   0.303   0.042  1.00  0.00     0.066 A 
ENDROOT
BRANCH   1  14
ATOM     14  C   UNL     1      -1.500   2.744   0.635  1.00  0.00     0.250 C 
ATOM     15  N   UNL     1      -1.021   4.090   0.682  1.00  0.00    -0.366 N 
ATOM     16  H   UNL     1      -1.679   4.871   0.899  1.00  0.00     0.159 HD
ATOM     17  H   UNL     1      -0.028   4.324   0.464  1.00  0.00     0.159 HD
ATOM     18  O   UNL     1      -2.724   2.524   0.833  1.00  0.00    -0.269 OA
ENDBRANCH   1  14
BRANCH  13  19
ATOM     19  C   UNL     1      -2.275  -0.214  -0.216  1.00  0.00    -0.001 A 
ATOM     20  C   UNL     1      -2.779  -1.285   0.538  1.00  0.00     0.010 A 
ATOM     21  C   UNL     1      -3.071   0.356  -1.223  1.00  0.00     0.010 A 
ATOM     22  C   UNL     1      -4.064  -1.777   0.290  1.00  0.00     0.001 A 
ATOM     23  C   UNL     1      -4.356  -0.138  -1.468  1.00  0.00     0.001 A 
ATOM     24  C   UNL     1      -4.852  -1.204  -0.712  1.00  0.00     0.000 A 
ENDBRANCH  13  19
TORSDOF 2
