REMARK SMILES CCNc1nn2ccccc2c1/C=C(/C#N)C(=O)OCC
REMARK SMILES IDX 13 1 12 2 4 3 5 4 6 5 11 6 7 7 10 8 8 9 9 10 3 11 2 13 1 14
REMARK SMILES IDX 14 15 15 16 16 17 17 18 18 19 19 20 20 21 21 22
REMARK H PARENT 3 12
ROOT
ATOM      1  C   UNL     1      -0.172  -0.380  -1.926  1.00  0.00     0.041 C 
ENDROOT
BRANCH   1   2
ATOM      2  C   UNL     1       0.785   0.156  -0.940  1.00  0.00     0.046 A 
ATOM      3  C   UNL     1       1.997  -0.405  -0.551  1.00  0.00     0.156 A 
ATOM      4  N   UNL     1       2.651   0.415   0.303  1.00  0.00    -0.150 NA
ATOM      5  N   UNL     1       1.890   1.487   0.448  1.00  0.00    -0.238 N 
ATOM      6  C   UNL     1       0.771   1.377  -0.290  1.00  0.00     0.076 A 
ATOM      7  C   UNL     1       2.181   2.579   1.198  1.00  0.00     0.113 A 
ATOM      8  C   UNL     1      -0.155   2.421  -0.351  1.00  0.00     0.029 A 
ATOM      9  C   UNL     1       1.275   3.650   1.196  1.00  0.00     0.020 A 
ATOM     10  C   UNL     1       0.107   3.568   0.414  1.00  0.00     0.004 A 
BRANCH   3  11
ATOM     11  N   UNL     1       2.501  -1.675  -0.985  1.00  0.00    -0.368 N 
ATOM     12  H   UNL     1       1.966  -2.220  -1.698  1.00  0.00     0.162 HD
BRANCH  11  13
ATOM     13  C   UNL     1       3.776  -2.211  -0.514  1.00  0.00     0.111 C 
ATOM     14  C   UNL     1       3.646  -2.724   0.916  1.00  0.00     0.027 C 
ENDBRANCH  11  13
ENDBRANCH   3  11
ENDBRANCH   1   2
BRANCH   1  15
ATOM     15  C   UNL     1      -1.501  -0.475  -1.733  1.00  0.00     0.138 C 
BRANCH  15  16
ATOM     16  C   UNL     1      -2.321  -0.906  -2.838  1.00  0.00     0.107 C 
ATOM     17  N   UNL     1      -2.980  -1.251  -3.724  1.00  0.00    -0.192 NA
ENDBRANCH  15  16
BRANCH  15  18
ATOM     18  C   UNL     1      -2.172  -0.221  -0.438  1.00  0.00     0.348 C 
ATOM     19  O   UNL     1      -1.532  -0.302   0.647  1.00  0.00    -0.245 OA
BRANCH  18  20
ATOM     20  O   UNL     1      -3.541   0.075  -0.426  1.00  0.00    -0.462 OA
BRANCH  20  21
ATOM     21  C   UNL     1      -4.289   0.287   0.769  1.00  0.00     0.230 C 
ATOM     22  C   UNL     1      -4.586  -1.039   1.460  1.00  0.00     0.049 C 
ENDBRANCH  20  21
ENDBRANCH  18  20
ENDBRANCH  15  18
ENDBRANCH   1  15
TORSDOF 8
