REMARK SMILES CC(=O)NC[C@]1(O)CCC[C@@H](C)C1
REMARK SMILES IDX 6 1 8 2 9 3 10 4 11 5 12 6 13 7 5 8 4 9 2 10 1 11 3 12 7 14
REMARK H PARENT 4 13 7 15
ROOT
ATOM      1  C   UNL     1      -0.117  -0.615  -0.168  1.00  0.00     0.082 C 
ATOM      2  C   UNL     1      -1.067  -1.581  -0.915  1.00  0.00     0.037 C 
ATOM      3  C   UNL     1      -2.534  -1.355  -0.536  1.00  0.00     0.003 C 
ATOM      4  C   UNL     1      -2.964   0.083  -0.843  1.00  0.00     0.003 C 
ATOM      5  C   UNL     1      -2.061   1.124  -0.155  1.00  0.00    -0.011 C 
ATOM      6  C   UNL     1      -2.367   1.254   1.346  1.00  0.00     0.008 C 
ATOM      7  C   UNL     1      -0.564   0.854  -0.440  1.00  0.00     0.040 C 
ENDROOT
BRANCH   1   8
ATOM      8  C   UNL     1       1.324  -0.860  -0.698  1.00  0.00     0.151 C 
BRANCH   8   9
ATOM      9  N   UNL     1       2.333  -0.015  -0.052  1.00  0.00    -0.353 N 
ATOM     10  C   UNL     1       3.715  -0.098  -0.419  1.00  0.00     0.216 C 
ATOM     11  C   UNL     1       4.720   0.776   0.257  1.00  0.00     0.114 C 
ATOM     12  O   UNL     1       4.092  -0.913  -1.304  1.00  0.00    -0.275 OA
ATOM     13  H   UNL     1       2.070   0.669   0.692  1.00  0.00     0.163 HD
ENDBRANCH   8   9
ENDBRANCH   1   8
BRANCH   1  14
ATOM     14  O   UNL     1      -0.168  -0.930   1.205  1.00  0.00    -0.388 OA
ATOM     15  H   UNL     1       0.273  -0.204   1.715  1.00  0.00     0.211 HD
ENDBRANCH   1  14
TORSDOF 3
