REMARK SMILES C[NH+]1CCC(=C(c2ccc(Cl)cc2)c2ccccn2)CC1
REMARK SMILES IDX 6 1 5 2 2 3 3 4 21 5 4 6 20 7 1 8 7 10 8 11 13 12 9 13 12 14
REMARK SMILES IDX 10 15 11 16 14 17 15 18 19 19 16 20 18 21 17 22
REMARK H PARENT 2 9
ROOT
ATOM      1  C   UNL     1      -0.771   0.220  -0.073  1.00  0.00     0.007 C 
ENDROOT
BRANCH   1   2
ATOM      2  C   UNL     1       0.492   0.040   0.403  1.00  0.00    -0.049 C 
ATOM      3  N   UNL     1       3.330  -0.313   0.801  1.00  0.00    -0.337 N 
ATOM      4  C   UNL     1       2.526  -1.411   0.222  1.00  0.00     0.266 C 
ATOM      5  C   UNL     1       2.801   1.002   0.380  1.00  0.00     0.266 C 
ATOM      6  C   UNL     1       1.062  -1.337   0.678  1.00  0.00     0.093 C 
ATOM      7  C   UNL     1       1.359   1.195   0.862  1.00  0.00     0.093 C 
ATOM      8  C   UNL     1       4.737  -0.446   0.385  1.00  0.00     0.332 C 
ATOM      9  H   UNL     1       3.299  -0.379   1.847  1.00  0.00     0.347 HD
ENDBRANCH   1   2
BRANCH   1  10
ATOM     10  C   UNL     1      -1.726  -0.906  -0.208  1.00  0.00    -0.016 A 
ATOM     11  C   UNL     1      -2.307  -1.190  -1.455  1.00  0.00     0.010 A 
ATOM     12  C   UNL     1      -2.099  -1.666   0.914  1.00  0.00     0.010 A 
ATOM     13  C   UNL     1      -3.227  -2.235  -1.582  1.00  0.00     0.021 A 
ATOM     14  C   UNL     1      -3.019  -2.710   0.784  1.00  0.00     0.021 A 
ATOM     15  C   UNL     1      -3.582  -2.997  -0.464  1.00  0.00     0.041 A 
ATOM     16  Cl  UNL     1      -4.738  -4.307  -0.625  1.00  0.00    -0.084 Cl
ENDBRANCH   1  10
BRANCH   1  17
ATOM     17  C   UNL     1      -1.274   1.547  -0.489  1.00  0.00     0.071 A 
ATOM     18  C   UNL     1      -0.641   2.268  -1.514  1.00  0.00     0.029 A 
ATOM     19  N   UNL     1      -2.417   2.035   0.068  1.00  0.00    -0.256 NA
ATOM     20  C   UNL     1      -1.172   3.495  -1.918  1.00  0.00     0.004 A 
ATOM     21  C   UNL     1      -2.950   3.226  -0.314  1.00  0.00     0.111 A 
ATOM     22  C   UNL     1      -2.333   3.981  -1.314  1.00  0.00     0.020 A 
ENDBRANCH   1  17
TORSDOF 3
