REMARK SMILES COc1cc([C@H]2NC(=O)[C@@H](C#N)C(=Nc3cccc(C)c3)S2)ccc1O
REMARK SMILES IDX 10 1 8 2 9 3 7 4 6 5 22 6 13 7 11 9 12 10 14 11 15 12 16 13
REMARK SMILES IDX 21 14 17 15 19 16 18 17 20 18 5 19 23 20 4 21 24 22 3 23
REMARK SMILES IDX 25 24 2 25 1 26 26 27
REMARK H PARENT 7 8 26 28
ROOT
ATOM      1  C   UNL     1      -1.252  -1.045  -3.507  1.00  0.00     0.237 C 
ATOM      2  C   UNL     1       0.142  -0.540  -3.783  1.00  0.00     0.245 C 
ATOM      3  O   UNL     1       0.452  -0.239  -4.967  1.00  0.00    -0.273 OA
ATOM      4  N   UNL     1       1.148  -0.454  -2.756  1.00  0.00    -0.338 N 
ATOM      5  C   UNL     1       0.837  -0.419  -1.321  1.00  0.00     0.177 C 
ATOM      6  S   UNL     1      -0.411  -1.680  -0.898  1.00  0.00    -0.079 SA
ATOM      7  C   UNL     1      -1.576  -0.944  -2.050  1.00  0.00     0.103 C 
ATOM      8  H   UNL     1       2.117  -0.203  -3.059  1.00  0.00     0.165 HD
ENDROOT
BRANCH   1   9
ATOM      9  C   UNL     1      -1.365  -2.443  -3.941  1.00  0.00     0.083 C 
ATOM     10  N   UNL     1      -1.455  -3.545  -4.283  1.00  0.00    -0.197 NA
ENDBRANCH   1   9
BRANCH   7  11
ATOM     11  N   UNL     1      -2.547  -0.168  -1.660  1.00  0.00    -0.245 NA
BRANCH  11  12
ATOM     12  C   UNL     1      -2.957   0.062  -0.305  1.00  0.00     0.064 A 
ATOM     13  C   UNL     1      -3.169  -1.003   0.588  1.00  0.00     0.028 A 
ATOM     14  C   UNL     1      -3.239   1.371   0.106  1.00  0.00     0.031 A 
ATOM     15  C   UNL     1      -3.610  -0.751   1.889  1.00  0.00     0.002 A 
ATOM     16  C   UNL     1      -3.664   1.630   1.419  1.00  0.00    -0.049 A 
ATOM     17  C   UNL     1      -3.858   0.559   2.306  1.00  0.00     0.003 A 
ATOM     18  C   UNL     1      -3.981   3.032   1.847  1.00  0.00     0.044 C 
ENDBRANCH  11  12
ENDBRANCH   7  11
BRANCH   5  19
ATOM     19  C   UNL     1       2.079  -0.664  -0.497  1.00  0.00    -0.011 A 
ATOM     20  C   UNL     1       2.884  -1.789  -0.741  1.00  0.00     0.011 A 
ATOM     21  C   UNL     1       2.420   0.210   0.549  1.00  0.00     0.057 A 
ATOM     22  C   UNL     1       4.019  -2.025   0.036  1.00  0.00     0.050 A 
ATOM     23  C   UNL     1       3.564  -0.025   1.337  1.00  0.00     0.160 A 
ATOM     24  C   UNL     1       4.362  -1.147   1.071  1.00  0.00     0.157 A 
BRANCH  23  25
ATOM     25  O   UNL     1       3.938   0.828   2.387  1.00  0.00    -0.493 OA
ATOM     26  C   UNL     1       3.222   1.998   2.769  1.00  0.00     0.278 C 
ENDBRANCH  23  25
BRANCH  24  27
ATOM     27  O   UNL     1       5.496  -1.384   1.846  1.00  0.00    -0.504 OA
ATOM     28  H   UNL     1       6.093  -2.186   1.681  1.00  0.00     0.293 HD
ENDBRANCH  24  27
ENDBRANCH   5  19
TORSDOF 6
