REMARK SMILES C1=Cc2ccccc2Nc2ccccc21
REMARK SMILES IDX 9 1 10 3 15 4 14 5 13 6 11 7 12 8 1 9 8 11 7 12 3 13 6 14
REMARK SMILES IDX 4 15 5 16 2 17
REMARK H PARENT 9 2
REMARK Flexibility Score:    8.900
ROOT
ATOM      1  N   UNL     1       0.053  -0.868   1.097  1.00  0.00    -0.355 N 
ATOM      2  H   UNL     1       0.063  -1.697   1.735  1.00  0.00     0.167 HD
ENDROOT
BRANCH   1   3
ATOM      3  C   UNL     1      -1.220  -0.448   0.600  1.00  0.00     0.046 A 
ATOM      4  C   UNL     1      -1.478   0.899   0.267  1.00  0.00    -0.002 A 
ATOM      5  C   UNL     1      -2.761   1.257  -0.187  1.00  0.00     0.010 A 
ATOM      6  C   UNL     1      -3.763   0.295  -0.327  1.00  0.00     0.001 A 
ATOM      7  C   UNL     1      -2.244  -1.402   0.475  1.00  0.00     0.026 A 
ATOM      8  C   UNL     1      -3.506  -1.033   0.006  1.00  0.00     0.002 A 
BRANCH   4   9
ATOM      9  C   UNL     1      -0.501   1.987   0.491  1.00  0.00     0.011 CG0
ATOM     10  G   UNL     1       0.828   1.904   0.361  1.00  0.00     0.000 G0
ENDBRANCH   4   9
ENDBRANCH   1   3
BRANCH   1  11
ATOM     11  C   UNL     1       1.248  -0.603   0.359  1.00  0.00     0.046 A 
ATOM     12  C   UNL     1       2.103  -1.674   0.051  1.00  0.00     0.026 A 
ATOM     13  C   UNL     1       1.601   0.707  -0.033  1.00  0.00    -0.002 A 
ATOM     14  C   UNL     1       3.287  -1.458  -0.656  1.00  0.00     0.002 A 
ATOM     15  C   UNL     1       2.807   0.909  -0.729  1.00  0.00     0.010 A 
ATOM     16  C   UNL     1       3.637  -0.167  -1.048  1.00  0.00     0.001 A 
BRANCH  13  17
ATOM     17  C   UNL     1       0.828   1.904   0.361  1.00  0.00     0.011 CG0
ATOM     18  G   UNL     1      -0.501   1.987   0.491  1.00  0.00     0.000 G0
ENDBRANCH  13  17
ENDBRANCH   1  11
TORSDOF 0
