REMARK SMILES O=C(NCC1CC1)NC(=O)c1c(F)cccc1Cl
REMARK SMILES IDX 1 1 2 2 3 3 8 4 9 5 10 6 4 9 5 10 6 11 7 12 11 13 12 14
REMARK SMILES IDX 17 15 14 16 16 17 15 18 13 19 18 20
REMARK H PARENT 3 7 8 8
ROOT
ATOM      1  O   UNL     1       0.981   1.798   0.520  1.00  0.00    -0.248 OA
ATOM      2  C   UNL     1       0.719   0.568   0.621  1.00  0.00     0.321 C 
ATOM      3  N   UNL     1       1.693  -0.329   1.171  1.00  0.00    -0.338 N 
ATOM      4  N   UNL     1      -0.558   0.059   0.204  1.00  0.00    -0.274 N 
ATOM      5  C   UNL     1      -1.576   0.860  -0.419  1.00  0.00     0.263 C 
ATOM      6  O   UNL     1      -1.310   2.022  -0.830  1.00  0.00    -0.269 OA
ATOM      7  H   UNL     1       1.435  -1.332   1.310  1.00  0.00     0.165 HD
ATOM      8  H   UNL     1      -0.747  -0.959   0.344  1.00  0.00     0.175 HD
ENDROOT
BRANCH   3   9
ATOM      9  C   UNL     1       3.015   0.115   1.606  1.00  0.00     0.121 C 
BRANCH   9  10
ATOM     10  C   UNL     1       3.879   0.467   0.388  1.00  0.00     0.008 C 
ATOM     11  C   UNL     1       4.612  -0.703  -0.250  1.00  0.00     0.006 C 
ATOM     12  C   UNL     1       5.379   0.309   0.588  1.00  0.00     0.006 C 
ENDBRANCH   9  10
ENDBRANCH   3   9
BRANCH   5  13
ATOM     13  C   UNL     1      -2.932   0.310  -0.636  1.00  0.00     0.094 A 
ATOM     14  C   UNL     1      -3.538   0.444  -1.900  1.00  0.00     0.137 A 
ATOM     15  C   UNL     1      -3.641  -0.339   0.402  1.00  0.00     0.056 A 
ATOM     16  C   UNL     1      -4.813  -0.080  -2.131  1.00  0.00     0.040 A 
ATOM     17  C   UNL     1      -4.918  -0.858   0.155  1.00  0.00     0.021 A 
ATOM     18  C   UNL     1      -5.500  -0.733  -1.107  1.00  0.00     0.005 A 
ATOM     19  F   UNL     1      -2.885   1.058  -2.920  1.00  0.00    -0.206 F 
ATOM     20  Cl  UNL     1      -3.007  -0.452   2.041  1.00  0.00    -0.083 Cl
ENDBRANCH   5  13
TORSDOF 3
