REMARK SMILES Cc1c(N2CCCC2)cc2c(c1NC(=O)c1ccccc1Cl)C(C)(C)CC2(C)C
REMARK SMILES IDX 13 1 14 2 15 3 12 5 2 6 3 7 9 8 11 9 10 10 23 11 27 12 26 13
REMARK SMILES IDX 1 14 24 15 25 16 28 17 29 18 4 19 5 20 8 21 6 22 7 23 16 24
REMARK SMILES IDX 17 25 21 26 18 27 20 28 19 29 22 30
REMARK H PARENT 13 4
ROOT
ATOM      1  N   UNL     1       1.866  -0.170   0.394  1.00  0.00    -0.321 N 
ATOM      2  C   UNL     1       2.632   0.131  -0.782  1.00  0.00     0.257 C 
ATOM      3  O   UNL     1       2.040   0.428  -1.855  1.00  0.00    -0.269 OA
ATOM      4  H   UNL     1       2.355  -0.318   1.305  1.00  0.00     0.170 HD
ENDROOT
BRANCH   1   5
ATOM      5  C   UNL     1       0.439  -0.048   0.411  1.00  0.00     0.050 A 
ATOM      6  C   UNL     1      -0.167   1.235   0.419  1.00  0.00    -0.004 A 
ATOM      7  C   UNL     1      -1.579   1.339   0.347  1.00  0.00     0.042 A 
ATOM      8  C   UNL     1      -2.365   0.180   0.331  1.00  0.00     0.031 A 
ATOM      9  C   UNL     1      -0.380  -1.198   0.417  1.00  0.00    -0.015 A 
ATOM     10  C   UNL     1      -1.753  -1.074   0.377  1.00  0.00    -0.034 A 
ATOM     11  C   UNL     1       0.043  -2.645   0.392  1.00  0.00    -0.007 C 
ATOM     12  C   UNL     1      -2.456  -2.392   0.317  1.00  0.00    -0.009 C 
ATOM     13  C   UNL     1      -1.306  -3.420   0.501  1.00  0.00     0.022 C 
ATOM     14  C   UNL     1       0.687   2.478   0.474  1.00  0.00     0.049 C 
ATOM     15  C   UNL     1       0.745  -2.984  -0.937  1.00  0.00     0.016 C 
ATOM     16  C   UNL     1       0.954  -2.998   1.585  1.00  0.00     0.016 C 
ATOM     17  C   UNL     1      -3.135  -2.568  -1.055  1.00  0.00     0.016 C 
ATOM     18  C   UNL     1      -3.496  -2.513   1.447  1.00  0.00     0.016 C 
BRANCH   7  19
ATOM     19  N   UNL     1      -2.224   2.618   0.269  1.00  0.00    -0.371 N 
ATOM     20  C   UNL     1      -2.234   3.423  -0.939  1.00  0.00     0.116 C 
ATOM     21  C   UNL     1      -3.130   3.109   1.290  1.00  0.00     0.116 C 
ATOM     22  C   UNL     1      -3.319   4.470  -0.718  1.00  0.00     0.023 C 
ATOM     23  C   UNL     1      -3.613   4.460   0.781  1.00  0.00     0.023 C 
ENDBRANCH   7  19
ENDBRANCH   1   5
BRANCH   2  24
ATOM     24  C   UNL     1       4.110   0.070  -0.751  1.00  0.00     0.058 A 
ATOM     25  C   UNL     1       4.740  -0.961  -0.030  1.00  0.00     0.015 A 
ATOM     26  C   UNL     1       4.909   1.014  -1.438  1.00  0.00     0.053 A 
ATOM     27  C   UNL     1       6.134  -1.055   0.003  1.00  0.00     0.001 A 
ATOM     28  C   UNL     1       6.305   0.909  -1.396  1.00  0.00     0.021 A 
ATOM     29  C   UNL     1       6.915  -0.123  -0.680  1.00  0.00     0.002 A 
ATOM     30  Cl  UNL     1       4.210   2.376  -2.309  1.00  0.00    -0.083 Cl
ENDBRANCH   2  24
TORSDOF 3
