REMARK SMILES C=C(O)[C@H]1C(=O)C[C@H]2Oc3c(C(C)=O)c(OC(C)=O)c(C)c(OC(C)=O)c3[C@@]2(C)C1=O
REMARK SMILES IDX 4 1 5 2 6 3 7 4 8 5 9 6 10 7 11 8 15 9 20 10 21 11 22 12
REMARK SMILES IDX 27 13 28 14 29 15 30 16 31 17 2 18 1 19 3 20 23 22 24 23
REMARK SMILES IDX 25 24 26 25 12 26 13 27 14 28 16 29 17 30 18 31 19 32
REMARK H PARENT 3 21
ROOT
ATOM      1  C   UNL     1       3.081  -0.343  -1.489  1.00  0.00     0.189 C 
ATOM      2  C   UNL     1       3.657   0.688  -0.548  1.00  0.00     0.154 C 
ATOM      3  O   UNL     1       4.072   1.753  -0.983  1.00  0.00    -0.298 OA
ATOM      4  C   UNL     1       3.840   0.355   0.903  1.00  0.00     0.123 C 
ATOM      5  C   UNL     1       2.544  -0.199   1.508  1.00  0.00     0.198 C 
ATOM      6  O   UNL     1       1.584   0.843   1.655  1.00  0.00    -0.487 OA
ATOM      7  C   UNL     1       0.372   0.477   1.107  1.00  0.00     0.142 A 
ATOM      8  C   UNL     1      -0.783   1.261   1.075  1.00  0.00     0.103 A 
ATOM      9  C   UNL     1      -1.938   0.716   0.457  1.00  0.00     0.152 A 
ATOM     10  C   UNL     1      -1.876  -0.554  -0.174  1.00  0.00     0.036 A 
ATOM     11  C   UNL     1      -3.115  -1.125  -0.817  1.00  0.00     0.052 C 
ATOM     12  C   UNL     1      -0.656  -1.277  -0.184  1.00  0.00     0.145 A 
ATOM     13  C   UNL     1       0.439  -0.754   0.516  1.00  0.00     0.055 A 
ATOM     14  C   UNL     1       1.830  -1.313   0.649  1.00  0.00     0.097 C 
ATOM     15  C   UNL     1       1.800  -2.644   1.430  1.00  0.00     0.029 C 
ATOM     16  C   UNL     1       2.453  -1.494  -0.737  1.00  0.00     0.165 C 
ATOM     17  O   UNL     1       2.394  -2.583  -1.292  1.00  0.00    -0.297 OA
ENDROOT
BRANCH   1  18
ATOM     18  C   UNL     1       2.095   0.222  -2.491  1.00  0.00     0.103 C 
ATOM     19  C   UNL     1       1.233   1.198  -2.183  1.00  0.00     0.055 C 
BRANCH  18  20
ATOM     20  O   UNL     1       2.070  -0.341  -3.767  1.00  0.00    -0.512 OA
ATOM     21  H   UNL     1       1.420  -0.028  -4.480  1.00  0.00     0.293 HD
ENDBRANCH  18  20
ENDBRANCH   1  18
BRANCH  12  22
ATOM     22  O   UNL     1      -0.521  -2.496  -0.858  1.00  0.00    -0.426 OA
BRANCH  22  23
ATOM     23  C   UNL     1      -0.694  -2.630  -2.240  1.00  0.00     0.308 C 
ATOM     24  C   UNL     1      -0.610  -3.982  -2.861  1.00  0.00     0.139 C 
ATOM     25  O   UNL     1      -0.850  -1.616  -2.973  1.00  0.00    -0.252 OA
ENDBRANCH  22  23
ENDBRANCH  12  22
BRANCH   8  26
ATOM     26  C   UNL     1      -0.742   2.637   1.621  1.00  0.00     0.167 C 
ATOM     27  C   UNL     1      -1.337   3.795   0.881  1.00  0.00     0.094 C 
ATOM     28  O   UNL     1      -0.165   2.852   2.721  1.00  0.00    -0.294 OA
ENDBRANCH   8  26
BRANCH   9  29
ATOM     29  O   UNL     1      -3.156   1.410   0.459  1.00  0.00    -0.425 OA
BRANCH  29  30
ATOM     30  C   UNL     1      -3.821   1.788   1.630  1.00  0.00     0.308 C 
ATOM     31  C   UNL     1      -5.059   2.613   1.536  1.00  0.00     0.139 C 
ATOM     32  O   UNL     1      -3.420   1.390   2.758  1.00  0.00    -0.252 OA
ENDBRANCH  29  30
ENDBRANCH   9  29
TORSDOF 7
