REMARK SMILES c1cncc(C2Nc3cccc4cccc(c34)N2)c1
REMARK SMILES IDX 6 1 7 2 8 3 9 4 10 5 11 6 12 7 13 8 14 9 15 10 16 11 17 12
REMARK SMILES IDX 18 13 5 16 1 17 2 18 19 19 3 20 4 21
REMARK H PARENT 7 14 18 15
ROOT
ATOM      1  C   UNL     1       1.208  -0.836   0.963  1.00  0.00     0.207 C 
ATOM      2  N   UNL     1       0.253  -1.698   0.259  1.00  0.00    -0.361 N 
ATOM      3  C   UNL     1      -1.059  -1.252  -0.115  1.00  0.00     0.046 A 
ATOM      4  C   UNL     1      -1.852  -2.029  -0.971  1.00  0.00     0.026 A 
ATOM      5  C   UNL     1      -3.129  -1.595  -1.338  1.00  0.00     0.003 A 
ATOM      6  C   UNL     1      -3.629  -0.385  -0.851  1.00  0.00     0.009 A 
ATOM      7  C   UNL     1      -2.852   0.400   0.013  1.00  0.00    -0.014 A 
ATOM      8  C   UNL     1      -3.343   1.611   0.522  1.00  0.00     0.009 A 
ATOM      9  C   UNL     1      -2.559   2.375   1.391  1.00  0.00     0.003 A 
ATOM     10  C   UNL     1      -1.282   1.939   1.757  1.00  0.00     0.026 A 
ATOM     11  C   UNL     1      -0.774   0.734   1.251  1.00  0.00     0.046 A 
ATOM     12  C   UNL     1      -1.557  -0.038   0.381  1.00  0.00     0.028 A 
ATOM     13  N   UNL     1       0.538   0.289   1.625  1.00  0.00    -0.361 N 
ATOM     14  H   UNL     1       0.592  -2.626  -0.082  1.00  0.00     0.163 HD
ATOM     15  H   UNL     1       1.091   0.852   2.310  1.00  0.00     0.163 HD
ENDROOT
BRANCH   1  16
ATOM     16  C   UNL     1       2.244  -0.319  -0.005  1.00  0.00     0.013 A 
ATOM     17  C   UNL     1       4.551  -0.146  -0.737  1.00  0.00     0.021 A 
ATOM     18  C   UNL     1       4.135   0.648  -1.806  1.00  0.00     0.111 A 
ATOM     19  C   UNL     1       3.602  -0.631   0.165  1.00  0.00     0.011 A 
ATOM     20  N   UNL     1       2.818   0.945  -1.962  1.00  0.00    -0.264 NA
ATOM     21  C   UNL     1       1.874   0.485  -1.097  1.00  0.00     0.118 A 
ENDBRANCH   1  16
TORSDOF 1
