REMARK SMILES N=c1nc(Nc2ccc(Br)cc2)cc(N)[nH]1
REMARK SMILES IDX 16 1 14 2 13 3 4 4 3 5 2 6 15 8 1 11 5 13 6 15 7 16 12 17
REMARK SMILES IDX 8 18 11 19 9 20 10 21
REMARK H PARENT 16 7 15 9 15 10 1 12 5 14
ROOT
ATOM      1  N   UNL     1      -2.951   0.818   1.227  1.00  0.00    -0.311 N 
ATOM      2  C   UNL     1      -3.192  -0.279   0.455  1.00  0.00     0.107 A 
ATOM      3  C   UNL     1      -2.125  -0.947  -0.153  1.00  0.00     0.091 A 
ATOM      4  C   UNL     1      -0.828  -0.462   0.040  1.00  0.00     0.138 A 
ATOM      5  N   UNL     1      -0.636   0.628   0.830  1.00  0.00    -0.196 NA
ATOM      6  C   UNL     1      -1.678   1.271   1.417  1.00  0.00     0.222 A 
ATOM      7  H   UNL     1      -3.754   1.312   1.679  1.00  0.00     0.171 HD
ENDROOT
BRANCH   2   8
ATOM      8  N   UNL     1      -4.530  -0.746   0.269  1.00  0.00    -0.385 N 
ATOM      9  H   UNL     1      -5.333  -0.254   0.721  1.00  0.00     0.158 HD
ATOM     10  H   UNL     1      -4.728  -1.586  -0.320  1.00  0.00     0.158 HD
ENDBRANCH   2   8
BRANCH   6  11
ATOM     11  N   UNL     1      -1.449   2.309   2.156  1.00  0.00    -0.267 NA
ATOM     12  H   UNL     1      -2.219   2.835   2.628  1.00  0.00     0.191 HD
ENDBRANCH   6  11
BRANCH   4  13
ATOM     13  N   UNL     1       0.289  -1.146  -0.550  1.00  0.00    -0.340 N 
ATOM     14  H   UNL     1       0.149  -2.133  -0.867  1.00  0.00     0.168 HD
BRANCH  13  15
ATOM     15  C   UNL     1       1.616  -0.599  -0.631  1.00  0.00     0.040 A 
ATOM     16  C   UNL     1       1.831   0.771  -0.872  1.00  0.00     0.027 A 
ATOM     17  C   UNL     1       2.723  -1.456  -0.530  1.00  0.00     0.027 A 
ATOM     18  C   UNL     1       3.132   1.274  -0.971  1.00  0.00     0.018 A 
ATOM     19  C   UNL     1       4.022  -0.950  -0.629  1.00  0.00     0.018 A 
ATOM     20  C   UNL     1       4.228   0.416  -0.845  1.00  0.00     0.018 A 
ATOM     21  Br  UNL     1       6.004   1.106  -0.983  1.00  0.00    -0.051 Br
ENDBRANCH  13  15
ENDBRANCH   4  13
TORSDOF 4
