REMARK SMILES O=C([O-])C(Cc1ccccc1-c1ccccc1)C(=O)[O-]
REMARK SMILES IDX 4 1 2 2 1 3 3 4 18 5 19 6 20 7 5 8 6 9 7 10 11 11 8 12 10 13
REMARK SMILES IDX 9 14 12 15 13 16 17 17 14 18 16 19 15 20
REMARK H PARENT
ROOT
ATOM      1  C   UNL     1      -1.830  -1.118   0.214  1.00  0.00     0.085 C 
ENDROOT
BRANCH   1   2
ATOM      2  C   UNL     1      -2.875  -0.936  -0.853  1.00  0.00     0.050 C 
ATOM      3  O   UNL     1      -4.009  -0.466  -0.568  1.00  0.00    -0.549 OA
ATOM      4  O   UNL     1      -2.588  -1.281  -2.168  1.00  0.00    -0.549 OA
ENDBRANCH   1   2
BRANCH   1   5
ATOM      5  C   UNL     1      -2.304  -2.115   1.234  1.00  0.00     0.050 C 
ATOM      6  O   UNL     1      -3.270  -1.843   1.997  1.00  0.00    -0.549 OA
ATOM      7  O   UNL     1      -1.683  -3.354   1.332  1.00  0.00    -0.549 OA
ENDBRANCH   1   5
BRANCH   1   8
ATOM      8  C   UNL     1      -1.461   0.221   0.887  1.00  0.00     0.051 C 
BRANCH   8   9
ATOM      9  C   UNL     1      -0.800   1.177  -0.086  1.00  0.00    -0.039 A 
ATOM     10  C   UNL     1      -1.586   2.170  -0.697  1.00  0.00     0.004 A 
ATOM     11  C   UNL     1       0.564   1.052  -0.459  1.00  0.00    -0.015 A 
ATOM     12  C   UNL     1      -1.036   3.027  -1.652  1.00  0.00     0.000 A 
ATOM     13  C   UNL     1       1.098   1.915  -1.430  1.00  0.00     0.009 A 
ATOM     14  C   UNL     1       0.302   2.899  -2.019  1.00  0.00     0.001 A 
BRANCH  11  15
ATOM     15  C   UNL     1       1.450   0.029   0.133  1.00  0.00    -0.018 A 
ATOM     16  C   UNL     1       1.872   0.139   1.467  1.00  0.00     0.009 A 
ATOM     17  C   UNL     1       1.911  -1.040  -0.652  1.00  0.00     0.009 A 
ATOM     18  C   UNL     1       2.720  -0.827   2.018  1.00  0.00     0.001 A 
ATOM     19  C   UNL     1       2.759  -2.004  -0.098  1.00  0.00     0.001 A 
ATOM     20  C   UNL     1       3.161  -1.899   1.237  1.00  0.00     0.000 A 
ENDBRANCH  11  15
ENDBRANCH   8   9
ENDBRANCH   1   8
TORSDOF 5
