REMARK SMILES CC[C@]1(O)C(=O)OCc2c1cc1n(c2=O)Cc2cc3ccccc3nc2-1
REMARK SMILES IDX 3 1 5 2 6 3 7 4 8 5 9 6 10 7 11 8 12 9 13 10 14 11 15 12
REMARK SMILES IDX 16 13 17 14 18 15 19 16 20 17 21 18 22 19 23 20 24 21 25 22
REMARK SMILES IDX 26 23 2 24 1 25 4 26
REMARK H PARENT 4 27
ROOT
ATOM      1  C   UNL     1      -3.520   0.652   0.098  1.00  0.00     0.187 C 
ATOM      2  C   UNL     1      -4.579  -0.280  -0.494  1.00  0.00     0.343 C 
ATOM      3  O   UNL     1      -5.437  -0.857   0.223  1.00  0.00    -0.248 OA
ATOM      4  O   UNL     1      -4.584  -0.520  -1.870  1.00  0.00    -0.458 OA
ATOM      5  C   UNL     1      -3.619   0.077  -2.729  1.00  0.00     0.275 C 
ATOM      6  C   UNL     1      -2.270   0.088  -2.051  1.00  0.00     0.062 A 
ATOM      7  C   UNL     1      -2.208   0.332  -0.646  1.00  0.00     0.009 A 
ATOM      8  C   UNL     1      -0.934   0.355  -0.025  1.00  0.00     0.036 A 
ATOM      9  C   UNL     1       0.194   0.133  -0.807  1.00  0.00     0.071 A 
ATOM     10  N   UNL     1       0.109  -0.084  -2.136  1.00  0.00    -0.302 N 
ATOM     11  C   UNL     1      -1.083  -0.107  -2.788  1.00  0.00     0.258 A 
ATOM     12  O   UNL     1      -1.117  -0.299  -4.034  1.00  0.00    -0.269 OA
ATOM     13  C   UNL     1       1.445  -0.270  -2.720  1.00  0.00     0.164 C 
ATOM     14  C   UNL     1       2.337  -0.127  -1.522  1.00  0.00     0.000 A 
ATOM     15  C   UNL     1       3.723  -0.201  -1.429  1.00  0.00     0.018 A 
ATOM     16  C   UNL     1       4.311  -0.025  -0.160  1.00  0.00     0.001 A 
ATOM     17  C   UNL     1       5.701  -0.087   0.007  1.00  0.00     0.010 A 
ATOM     18  C   UNL     1       6.262   0.091   1.276  1.00  0.00     0.001 A 
ATOM     19  C   UNL     1       5.442   0.332   2.383  1.00  0.00     0.002 A 
ATOM     20  C   UNL     1       4.053   0.397   2.233  1.00  0.00     0.029 A 
ATOM     21  C   UNL     1       3.475   0.220   0.971  1.00  0.00     0.071 A 
ATOM     22  N   UNL     1       2.119   0.284   0.826  1.00  0.00    -0.246 NA
ATOM     23  C   UNL     1       1.578   0.111  -0.404  1.00  0.00     0.092 A 
ENDROOT
BRANCH   1  24
ATOM     24  C   UNL     1      -3.399   0.493   1.651  1.00  0.00     0.049 C 
ATOM     25  C   UNL     1      -4.610   0.988   2.457  1.00  0.00     0.008 C 
ENDBRANCH   1  24
BRANCH   1  26
ATOM     26  O   UNL     1      -3.838   1.991  -0.205  1.00  0.00    -0.374 OA
ATOM     27  H   UNL     1      -4.806   2.134  -0.039  1.00  0.00     0.212 HD
ENDBRANCH   1  26
TORSDOF 2
