REMARK SMILES CCCCOC(=O)/C=C/C(=O)NC(N)=O
REMARK SMILES IDX 5 1 4 2 3 3 2 4 1 5 6 6 7 7 8 8 9 9 10 10 12 11 13 12 14 13
REMARK SMILES IDX 11 14 15 16
REMARK H PARENT 12 15 14 17 14 18
ROOT
ATOM      1  O   UNL     1      -0.808  -0.242   0.988  1.00  0.00    -0.463 OA
ENDROOT
BRANCH   1   2
ATOM      2  C   UNL     1      -2.196  -0.534   1.135  1.00  0.00     0.233 C 
BRANCH   2   3
ATOM      3  C   UNL     1      -2.998   0.077  -0.018  1.00  0.00     0.041 C 
BRANCH   3   4
ATOM      4  C   UNL     1      -4.486  -0.274   0.099  1.00  0.00     0.000 C 
ATOM      5  C   UNL     1      -5.287   0.334  -1.049  1.00  0.00     0.004 C 
ENDBRANCH   3   4
ENDBRANCH   2   3
ENDBRANCH   1   2
BRANCH   1   6
ATOM      6  C   UNL     1      -0.248   1.010   1.274  1.00  0.00     0.330 C 
ATOM      7  O   UNL     1      -0.963   1.940   1.737  1.00  0.00    -0.247 OA
BRANCH   6   8
ATOM      8  C   UNL     1       1.184   1.256   1.044  1.00  0.00     0.099 C 
BRANCH   8   9
ATOM      9  C   UNL     1       1.995   0.312   0.551  1.00  0.00     0.079 C 
BRANCH   9  10
ATOM     10  C   UNL     1       3.432   0.551   0.316  1.00  0.00     0.252 C 
ATOM     11  N   UNL     1       4.246  -0.507  -0.217  1.00  0.00    -0.275 N 
ATOM     12  C   UNL     1       5.652  -0.385  -0.484  1.00  0.00     0.319 C 
ATOM     13  N   UNL     1       6.373  -1.496  -1.014  1.00  0.00    -0.351 N 
ATOM     14  O   UNL     1       3.940   1.675   0.582  1.00  0.00    -0.269 OA
ATOM     15  H   UNL     1       3.790  -1.424  -0.425  1.00  0.00     0.175 HD
ATOM     16  O   UNL     1       6.261   0.694  -0.255  1.00  0.00    -0.249 OA
ATOM     17  H   UNL     1       5.888  -2.400  -1.212  1.00  0.00     0.161 HD
ATOM     18  H   UNL     1       7.395  -1.417  -1.212  1.00  0.00     0.161 HD
ENDBRANCH   9  10
ENDBRANCH   8   9
ENDBRANCH   6   8
ENDBRANCH   1   6
TORSDOF 7
