REMARK SMILES CC(=O)NC[C@@]1(O)CCC[C@@H](C)C1
REMARK SMILES IDX 6 1 8 2 9 3 10 4 11 5 12 6 13 7 5 8 4 9 2 10 1 11 3 12 7 14
REMARK H PARENT 4 13 7 15
ROOT
ATOM      1  C   UNL     1      -0.004  -0.374   0.009  1.00  0.00     0.082 C 
ATOM      2  C   UNL     1      -0.135   0.888   0.911  1.00  0.00     0.037 C 
ATOM      3  C   UNL     1      -1.390   0.829   1.792  1.00  0.00     0.003 C 
ATOM      4  C   UNL     1      -2.653   0.666   0.943  1.00  0.00     0.003 C 
ATOM      5  C   UNL     1      -2.559  -0.584   0.051  1.00  0.00    -0.011 C 
ATOM      6  C   UNL     1      -3.815  -0.719  -0.817  1.00  0.00     0.008 C 
ATOM      7  C   UNL     1      -1.295  -0.522  -0.833  1.00  0.00     0.040 C 
ENDROOT
BRANCH   1   8
ATOM      8  C   UNL     1       1.197  -0.236  -0.965  1.00  0.00     0.151 C 
BRANCH   8   9
ATOM      9  N   UNL     1       2.489  -0.125  -0.281  1.00  0.00    -0.353 N 
ATOM     10  C   UNL     1       3.708   0.022  -1.018  1.00  0.00     0.216 C 
ATOM     11  C   UNL     1       5.010   0.131  -0.293  1.00  0.00     0.114 C 
ATOM     12  O   UNL     1       3.693   0.048  -2.279  1.00  0.00    -0.275 OA
ATOM     13  H   UNL     1       2.552  -0.152   0.761  1.00  0.00     0.163 HD
ENDBRANCH   8   9
ENDBRANCH   1   8
BRANCH   1  14
ATOM     14  O   UNL     1       0.145  -1.545   0.782  1.00  0.00    -0.388 OA
ATOM     15  H   UNL     1       0.812  -1.375   1.496  1.00  0.00     0.211 HD
ENDBRANCH   1  14
TORSDOF 3
