REMARK SMILES Sc1ncnc2sc(=Nc3ccccc3)[nH]c12
REMARK SMILES IDX 16 1 8 2 7 3 6 4 5 5 4 6 3 7 2 8 17 9 9 11 10 12 11 13 15 14
REMARK SMILES IDX 12 15 14 16 13 17 1 18
REMARK H PARENT 16 10 1 19
ROOT
ATOM      1  N   UNL     1      -1.659   0.976   0.159  1.00  0.00    -0.327 N 
ATOM      2  C   UNL     1      -0.425   0.417   0.231  1.00  0.00     0.189 A 
ATOM      3  S   UNL     1      -0.496  -1.285   0.309  1.00  0.00    -0.076 S 
ATOM      4  C   UNL     1      -2.174  -1.268   0.268  1.00  0.00     0.147 A 
ATOM      5  N   UNL     1      -3.009  -2.332   0.300  1.00  0.00    -0.224 NA
ATOM      6  C   UNL     1      -4.354  -2.109   0.251  1.00  0.00     0.224 A 
ATOM      7  N   UNL     1      -4.841  -0.834   0.169  1.00  0.00    -0.228 NA
ATOM      8  C   UNL     1      -4.011   0.248   0.134  1.00  0.00     0.121 A 
ATOM      9  C   UNL     1      -2.633   0.029   0.186  1.00  0.00     0.109 A 
ATOM     10  H   UNL     1      -1.829   2.004   0.089  1.00  0.00     0.169 HD
ENDROOT
BRANCH   2  11
ATOM     11  N   UNL     1       0.660   1.133   0.177  1.00  0.00    -0.221 NA
BRANCH  11  12
ATOM     12  C   UNL     1       2.008   0.651   0.286  1.00  0.00     0.066 A 
ATOM     13  C   UNL     1       2.389  -0.256   1.293  1.00  0.00     0.028 A 
ATOM     14  C   UNL     1       2.986   1.174  -0.570  1.00  0.00     0.028 A 
ATOM     15  C   UNL     1       3.720  -0.672   1.398  1.00  0.00     0.002 A 
ATOM     16  C   UNL     1       4.317   0.756  -0.463  1.00  0.00     0.002 A 
ATOM     17  C   UNL     1       4.682  -0.171   0.517  1.00  0.00     0.000 A 
ENDBRANCH  11  12
ENDBRANCH   2  11
BRANCH   8  18
ATOM     18  S   UNL     1      -4.703   1.895   0.025  1.00  0.00    -0.122 SA
ATOM     19  H   UNL     1      -4.755   2.022   1.426  1.00  0.00     0.110 HD
ENDBRANCH   8  18
TORSDOF 3
