REMARK SMILES C=C(O)C1=C(O)[C@@]2(C)c3c(OC(C)=O)c(C)c(OC(C)=O)c(C(C)=O)c3O[C@H]2C=C1O
REMARK SMILES IDX 4 1 5 2 7 3 8 4 9 5 10 6 15 7 16 8 17 9 22 10 26 11 27 12
REMARK SMILES IDX 28 13 29 14 30 15 2 16 1 17 3 18 6 20 31 22 11 24 12 25
REMARK SMILES IDX 13 26 14 27 23 28 24 29 25 30 18 31 19 32 20 33 21 34
REMARK H PARENT 3 19 6 21 31 23
ROOT
ATOM      1  C   UNL     1       3.463   0.450   0.226  1.00  0.00     0.096 C 
ATOM      2  C   UNL     1       2.346  -0.119   0.736  1.00  0.00     0.122 C 
ATOM      3  C   UNL     1       1.485  -1.084  -0.073  1.00  0.00     0.098 C 
ATOM      4  C   UNL     1       1.657  -2.517   0.462  1.00  0.00     0.030 C 
ATOM      5  C   UNL     1       0.038  -0.634  -0.041  1.00  0.00     0.056 A 
ATOM      6  C   UNL     1      -0.883  -0.642   1.020  1.00  0.00     0.145 A 
ATOM      7  C   UNL     1      -2.192  -0.143   0.785  1.00  0.00     0.036 A 
ATOM      8  C   UNL     1      -3.265  -0.251   1.840  1.00  0.00     0.052 C 
ATOM      9  C   UNL     1      -2.514   0.433  -0.471  1.00  0.00     0.152 A 
ATOM     10  C   UNL     1      -1.550   0.470  -1.510  1.00  0.00     0.103 A 
ATOM     11  C   UNL     1      -0.302  -0.111  -1.262  1.00  0.00     0.143 A 
ATOM     12  O   UNL     1       0.732  -0.236  -2.165  1.00  0.00    -0.483 OA
ATOM     13  C   UNL     1       1.772  -1.032  -1.615  1.00  0.00     0.218 C 
ATOM     14  C   UNL     1       3.106  -0.486  -2.012  1.00  0.00     0.065 C 
ATOM     15  C   UNL     1       3.876   0.207  -1.175  1.00  0.00     0.129 C 
ENDROOT
BRANCH   1  16
ATOM     16  C   UNL     1       4.334   1.304   1.068  1.00  0.00     0.122 C 
ATOM     17  C   UNL     1       4.569   2.572   0.737  1.00  0.00     0.059 C 
BRANCH  16  18
ATOM     18  O   UNL     1       4.922   0.781   2.219  1.00  0.00    -0.508 OA
ATOM     19  H   UNL     1       4.788  -0.187   2.483  1.00  0.00     0.293 HD
ENDBRANCH  16  18
ENDBRANCH   1  16
BRANCH   2  20
ATOM     20  O   UNL     1       1.949   0.144   2.051  1.00  0.00    -0.510 OA
ATOM     21  H   UNL     1       2.388   0.830   2.651  1.00  0.00     0.293 HD
ENDBRANCH   2  20
BRANCH  15  22
ATOM     22  O   UNL     1       5.100   0.710  -1.621  1.00  0.00    -0.507 OA
ATOM     23  H   UNL     1       5.426   0.573  -2.571  1.00  0.00     0.293 HD
ENDBRANCH  15  22
BRANCH   6  24
ATOM     24  O   UNL     1      -0.507  -1.183   2.257  1.00  0.00    -0.426 OA
BRANCH  24  25
ATOM     25  C   UNL     1      -0.593  -0.491   3.471  1.00  0.00     0.308 C 
ATOM     26  C   UNL     1      -0.352  -1.217   4.750  1.00  0.00     0.139 C 
ATOM     27  O   UNL     1      -0.861   0.741   3.495  1.00  0.00    -0.252 OA
ENDBRANCH  24  25
ENDBRANCH   6  24
BRANCH  10  28
ATOM     28  C   UNL     1      -1.832   1.138  -2.805  1.00  0.00     0.167 C 
ATOM     29  C   UNL     1      -1.290   0.612  -4.098  1.00  0.00     0.094 C 
ATOM     30  O   UNL     1      -2.516   2.197  -2.824  1.00  0.00    -0.294 OA
ENDBRANCH  10  28
BRANCH   9  31
ATOM     31  O   UNL     1      -3.802   0.951  -0.666  1.00  0.00    -0.425 OA
BRANCH  31  32
ATOM     32  C   UNL     1      -4.695   0.446  -1.619  1.00  0.00     0.308 C 
ATOM     33  C   UNL     1      -5.992   1.142  -1.853  1.00  0.00     0.139 C 
ATOM     34  O   UNL     1      -4.410  -0.583  -2.290  1.00  0.00    -0.252 OA
ENDBRANCH  31  32
ENDBRANCH   9  31
TORSDOF 9
