REMARK SMILES C=C(O)CC(=O)Nc1ccc2ccccc2c1
REMARK SMILES IDX 2 1 1 2 3 3 4 5 5 6 7 7 6 8 8 10 9 11 17 12 10 13 16 14
REMARK SMILES IDX 11 15 15 16 12 17 14 18 13 19
REMARK H PARENT 3 4 7 9
ROOT
ATOM      1  C   UNL     1      -4.327   0.569  -0.019  1.00  0.00     0.094 C 
ATOM      2  C   UNL     1      -4.999  -0.125   0.898  1.00  0.00     0.054 C 
ENDROOT
BRANCH   1   3
ATOM      3  O   UNL     1      -4.136   1.936   0.171  1.00  0.00    -0.512 OA
ATOM      4  H   UNL     1      -3.614   2.492  -0.497  1.00  0.00     0.293 HD
ENDBRANCH   1   3
BRANCH   1   5
ATOM      5  C   UNL     1      -3.747  -0.110  -1.227  1.00  0.00     0.174 C 
BRANCH   5   6
ATOM      6  C   UNL     1      -2.368  -0.609  -0.921  1.00  0.00     0.231 C 
ATOM      7  N   UNL     1      -1.257   0.301  -0.928  1.00  0.00    -0.326 N 
ATOM      8  O   UNL     1      -2.197  -1.831  -0.660  1.00  0.00    -0.274 OA
ATOM      9  H   UNL     1      -1.386   1.222  -1.406  1.00  0.00     0.169 HD
BRANCH   7  10
ATOM     10  C   UNL     1       0.047  -0.015  -0.413  1.00  0.00     0.041 A 
ATOM     11  C   UNL     1       0.208  -0.830   0.722  1.00  0.00     0.027 A 
ATOM     12  C   UNL     1       1.180   0.551  -1.018  1.00  0.00     0.034 A 
ATOM     13  C   UNL     1       1.482  -1.106   1.224  1.00  0.00     0.011 A 
ATOM     14  C   UNL     1       2.464   0.279  -0.522  1.00  0.00    -0.016 A 
ATOM     15  C   UNL     1       2.617  -0.560   0.607  1.00  0.00    -0.018 A 
ATOM     16  C   UNL     1       3.600   0.832  -1.135  1.00  0.00     0.009 A 
ATOM     17  C   UNL     1       3.902  -0.832   1.103  1.00  0.00     0.009 A 
ATOM     18  C   UNL     1       4.874   0.553  -0.633  1.00  0.00     0.001 A 
ATOM     19  C   UNL     1       5.024  -0.276   0.482  1.00  0.00     0.001 A 
ENDBRANCH   7  10
ENDBRANCH   5   6
ENDBRANCH   1   5
TORSDOF 4
