REMARK SMILES O=C(Oc1ccc(NC(=O)c2cc3c(cc2Br)OCO3)cc1)c1ccccc1
REMARK SMILES IDX 4 1 5 2 6 3 7 4 21 5 22 6 3 7 2 8 1 9 23 10 24 11 28 12
REMARK SMILES IDX 25 13 27 14 26 15 8 16 9 17 10 19 11 20 12 21 16 22 13 23
REMARK SMILES IDX 15 24 14 25 20 26 18 27 19 28 17 29
REMARK H PARENT 8 18
ROOT
ATOM      1  C   UNL     1      -2.220   0.276   0.859  1.00  0.00     0.131 A 
ATOM      2  C   UNL     1      -1.515   0.714   1.986  1.00  0.00     0.049 A 
ATOM      3  C   UNL     1      -0.118   0.675   2.009  1.00  0.00     0.030 A 
ATOM      4  C   UNL     1       0.599   0.224   0.892  1.00  0.00     0.041 A 
ATOM      5  C   UNL     1      -0.107  -0.216  -0.242  1.00  0.00     0.030 A 
ATOM      6  C   UNL     1      -1.505  -0.179  -0.263  1.00  0.00     0.049 A 
ENDROOT
BRANCH   1   7
ATOM      7  O   UNL     1      -3.621   0.345   0.879  1.00  0.00    -0.423 OA
BRANCH   7   8
ATOM      8  C   UNL     1      -4.486  -0.498   0.168  1.00  0.00     0.343 C 
ATOM      9  O   UNL     1      -4.069  -1.594  -0.299  1.00  0.00    -0.246 OA
BRANCH   8  10
ATOM     10  C   UNL     1      -5.910  -0.126   0.016  1.00  0.00     0.060 A 
ATOM     11  C   UNL     1      -6.805  -0.968  -0.671  1.00  0.00     0.015 A 
ATOM     12  C   UNL     1      -6.390   1.081   0.557  1.00  0.00     0.015 A 
ATOM     13  C   UNL     1      -8.149  -0.608  -0.811  1.00  0.00     0.001 A 
ATOM     14  C   UNL     1      -7.735   1.436   0.414  1.00  0.00     0.001 A 
ATOM     15  C   UNL     1      -8.614   0.592  -0.269  1.00  0.00     0.000 A 
ENDBRANCH   8  10
ENDBRANCH   7   8
ENDBRANCH   1   7
BRANCH   4  16
ATOM     16  N   UNL     1       2.035   0.171   0.949  1.00  0.00    -0.322 N 
ATOM     17  C   UNL     1       2.890   0.323  -0.195  1.00  0.00     0.256 C 
ATOM     18  H   UNL     1       2.489   0.104   1.888  1.00  0.00     0.170 HD
ATOM     19  O   UNL     1       2.462   0.900  -1.232  1.00  0.00    -0.269 OA
BRANCH  17  20
ATOM     20  C   UNL     1       4.304  -0.102  -0.137  1.00  0.00     0.058 A 
ATOM     21  C   UNL     1       5.292   0.752  -0.679  1.00  0.00     0.065 A 
ATOM     22  C   UNL     1       4.697  -1.348   0.442  1.00  0.00     0.034 A 
ATOM     23  C   UNL     1       6.622   0.355  -0.603  1.00  0.00     0.166 A 
ATOM     24  C   UNL     1       6.059  -1.703   0.495  1.00  0.00     0.067 A 
ATOM     25  C   UNL     1       6.990  -0.819  -0.037  1.00  0.00     0.166 A 
ATOM     26  O   UNL     1       7.746   1.023  -1.050  1.00  0.00    -0.454 OA
ATOM     27  O   UNL     1       8.364  -0.952  -0.101  1.00  0.00    -0.454 OA
ATOM     28  C   UNL     1       8.892   0.215  -0.747  1.00  0.00     0.468 C 
ATOM     29  Br  UNL     1       3.425  -2.637   1.078  1.00  0.00    -0.050 Br
ENDBRANCH  17  20
ENDBRANCH   4  16
TORSDOF 5
