REMARK SMILES Cn1ncc2c(Nc3ccccc3Cl)nc(Nc3ccccc3Cl)nc21
REMARK SMILES IDX 1 1 2 2 3 3 4 4 5 5 6 6 15 7 16 8 25 9 26 10 17 11 18 13
REMARK SMILES IDX 19 14 23 15 20 16 22 17 21 18 24 19 7 20 8 22 9 23 13 24
REMARK SMILES IDX 10 25 12 26 11 27 14 28
REMARK H PARENT 17 12 7 21
ROOT
ATOM      1  C   UNL     1      -1.096  -4.729  -0.465  1.00  0.00     0.176 C 
ATOM      2  N   UNL     1      -1.423  -3.325  -0.256  1.00  0.00    -0.250 N 
ATOM      3  N   UNL     1      -2.654  -2.861  -0.073  1.00  0.00    -0.179 NA
ATOM      4  C   UNL     1      -2.572  -1.529   0.178  1.00  0.00     0.149 A 
ATOM      5  C   UNL     1      -1.238  -1.161   0.159  1.00  0.00     0.082 A 
ATOM      6  C   UNL     1      -0.534   0.022   0.395  1.00  0.00     0.147 A 
ATOM      7  N   UNL     1       0.830  -0.049   0.373  1.00  0.00    -0.194 NA
ATOM      8  C   UNL     1       1.496  -1.220   0.100  1.00  0.00     0.231 A 
ATOM      9  N   UNL     1       0.791  -2.369  -0.129  1.00  0.00    -0.193 NA
ATOM     10  C   UNL     1      -0.561  -2.309  -0.102  1.00  0.00     0.165 A 
ENDROOT
BRANCH   8  11
ATOM     11  N   UNL     1       2.929  -1.260   0.099  1.00  0.00    -0.323 N 
ATOM     12  H   UNL     1       3.387  -2.199   0.135  1.00  0.00     0.170 HD
BRANCH  11  13
ATOM     13  C   UNL     1       3.759  -0.086   0.115  1.00  0.00     0.060 A 
ATOM     14  C   UNL     1       3.434   1.030  -0.677  1.00  0.00     0.028 A 
ATOM     15  C   UNL     1       4.942  -0.061   0.883  1.00  0.00     0.064 A 
ATOM     16  C   UNL     1       4.256   2.160  -0.681  1.00  0.00     0.002 A 
ATOM     17  C   UNL     1       5.759   1.077   0.874  1.00  0.00     0.023 A 
ATOM     18  C   UNL     1       5.415   2.184   0.096  1.00  0.00     0.002 A 
ATOM     19  Cl  UNL     1       5.404  -1.423   1.895  1.00  0.00    -0.082 Cl
ENDBRANCH  11  13
ENDBRANCH   8  11
BRANCH   6  20
ATOM     20  N   UNL     1      -1.174   1.272   0.693  1.00  0.00    -0.338 N 
ATOM     21  H   UNL     1      -0.663   1.946   1.307  1.00  0.00     0.168 HD
BRANCH  20  22
ATOM     22  C   UNL     1      -2.481   1.643   0.231  1.00  0.00     0.058 A 
ATOM     23  C   UNL     1      -3.417   2.121   1.158  1.00  0.00     0.027 A 
ATOM     24  C   UNL     1      -2.831   1.577  -1.136  1.00  0.00     0.064 A 
ATOM     25  C   UNL     1      -4.701   2.485   0.744  1.00  0.00     0.002 A 
ATOM     26  C   UNL     1      -4.120   1.944  -1.542  1.00  0.00     0.023 A 
ATOM     27  C   UNL     1      -5.054   2.390  -0.604  1.00  0.00     0.002 A 
ATOM     28  Cl  UNL     1      -1.668   1.106  -2.370  1.00  0.00    -0.082 Cl
ENDBRANCH  20  22
ENDBRANCH   6  20
TORSDOF 4
