REMARK SMILES C=C(O)c1c(OC(C)=O)c(C)c(OC(C)=O)c2c1O[C@H]1CC(=O)C(C(C)=O)=C(O)[C@@]21C
REMARK SMILES IDX 4 1 5 2 10 3 11 4 12 5 17 6 18 7 19 8 20 9 21 10 22 11 23 12
REMARK SMILES IDX 24 13 28 14 30 15 31 16 2 17 1 18 3 19 6 21 7 22 8 23 9 24
REMARK SMILES IDX 13 25 14 26 15 27 16 28 29 29 25 31 26 32 27 33
REMARK H PARENT 3 20 29 30
ROOT
ATOM      1  C   UNL     1      -1.274   1.566  -0.788  1.00  0.00     0.101 A 
ATOM      2  C   UNL     1      -2.352   0.765  -0.333  1.00  0.00     0.152 A 
ATOM      3  C   UNL     1      -2.148  -0.608  -0.041  1.00  0.00     0.036 A 
ATOM      4  C   UNL     1      -3.297  -1.435   0.477  1.00  0.00     0.052 C 
ATOM      5  C   UNL     1      -0.865  -1.186  -0.222  1.00  0.00     0.145 A 
ATOM      6  C   UNL     1       0.191  -0.363  -0.639  1.00  0.00     0.055 A 
ATOM      7  C   UNL     1      -0.019   0.960  -0.920  1.00  0.00     0.142 A 
ATOM      8  O   UNL     1       1.133   1.571  -1.367  1.00  0.00    -0.487 OA
ATOM      9  C   UNL     1       2.184   0.622  -1.505  1.00  0.00     0.199 C 
ATOM     10  C   UNL     1       3.480   1.169  -0.913  1.00  0.00     0.128 C 
ATOM     11  C   UNL     1       3.418   1.130   0.574  1.00  0.00     0.173 C 
ATOM     12  O   UNL     1       3.777   2.134   1.246  1.00  0.00    -0.294 OA
ATOM     13  C   UNL     1       2.983  -0.113   1.236  1.00  0.00     0.099 C 
ATOM     14  C   UNL     1       2.254  -1.018   0.540  1.00  0.00     0.121 C 
ATOM     15  C   UNL     1       1.650  -0.701  -0.832  1.00  0.00     0.095 C 
ATOM     16  C   UNL     1       1.840  -1.887  -1.800  1.00  0.00     0.029 C 
ENDROOT
BRANCH   1  17
ATOM     17  C   UNL     1      -1.482   2.974  -1.200  1.00  0.00     0.123 C 
ATOM     18  C   UNL     1      -0.629   3.937  -0.837  1.00  0.00     0.059 C 
BRANCH  17  19
ATOM     19  O   UNL     1      -2.603   3.293  -1.968  1.00  0.00    -0.508 OA
ATOM     20  H   UNL     1      -2.797   4.242  -2.267  1.00  0.00     0.293 HD
ENDBRANCH  17  19
ENDBRANCH   1  17
BRANCH   2  21
ATOM     21  O   UNL     1      -3.633   1.309  -0.165  1.00  0.00    -0.425 OA
BRANCH  21  22
ATOM     22  C   UNL     1      -3.908   2.385   0.688  1.00  0.00     0.308 C 
ATOM     23  C   UNL     1      -5.276   2.977   0.702  1.00  0.00     0.139 C 
ATOM     24  O   UNL     1      -3.034   2.813   1.489  1.00  0.00    -0.252 OA
ENDBRANCH  21  22
ENDBRANCH   2  21
BRANCH   5  25
ATOM     25  O   UNL     1      -0.626  -2.541   0.030  1.00  0.00    -0.426 OA
BRANCH  25  26
ATOM     26  C   UNL     1      -1.246  -3.575  -0.681  1.00  0.00     0.308 C 
ATOM     27  C   UNL     1      -1.004  -4.988  -0.275  1.00  0.00     0.139 C 
ATOM     28  O   UNL     1      -1.944  -3.328  -1.701  1.00  0.00    -0.252 OA
ENDBRANCH  25  26
ENDBRANCH   5  25
BRANCH  14  29
ATOM     29  O   UNL     1       1.984  -2.284   1.076  1.00  0.00    -0.510 OA
ATOM     30  H   UNL     1       2.428  -2.651   1.908  1.00  0.00     0.293 HD
ENDBRANCH  14  29
BRANCH  13  31
ATOM     31  C   UNL     1       3.360  -0.338   2.653  1.00  0.00     0.166 C 
ATOM     32  C   UNL     1       4.736  -0.019   3.149  1.00  0.00     0.094 C 
ATOM     33  O   UNL     1       2.494  -0.743   3.475  1.00  0.00    -0.294 OA
ENDBRANCH  13  31
TORSDOF 8
