REMARK SMILES O=C(Nc1ccc(NC(=O)c2ccncc2)cc1)c1ccncc1
REMARK SMILES IDX 4 1 5 2 6 3 7 4 17 5 18 6 3 7 2 8 1 9 19 11 20 12 24 13
REMARK SMILES IDX 21 14 23 15 22 16 8 17 9 18 10 20 11 21 12 22 16 23 13 24
REMARK SMILES IDX 15 25 14 26
REMARK H PARENT 3 10 8 19
ROOT
ATOM      1  C   UNL     1      -1.436   0.407  -0.584  1.00  0.00     0.041 A 
ATOM      2  C   UNL     1      -0.771   0.876  -1.726  1.00  0.00     0.028 A 
ATOM      3  C   UNL     1       0.624   0.839  -1.801  1.00  0.00     0.028 A 
ATOM      4  C   UNL     1       1.381   0.332  -0.734  1.00  0.00     0.041 A 
ATOM      5  C   UNL     1       0.714  -0.178   0.394  1.00  0.00     0.028 A 
ATOM      6  C   UNL     1      -0.681  -0.141   0.468  1.00  0.00     0.028 A 
ENDROOT
BRANCH   1   7
ATOM      7  N   UNL     1      -2.873   0.436  -0.540  1.00  0.00    -0.322 N 
ATOM      8  C   UNL     1      -3.632   0.572   0.673  1.00  0.00     0.255 C 
ATOM      9  O   UNL     1      -3.092   1.077   1.695  1.00  0.00    -0.269 OA
ATOM     10  H   UNL     1      -3.388   0.475  -1.449  1.00  0.00     0.170 HD
BRANCH   8  11
ATOM     11  C   UNL     1      -5.060   0.171   0.726  1.00  0.00     0.043 A 
ATOM     12  C   UNL     1      -5.894   0.655   1.749  1.00  0.00     0.034 A 
ATOM     13  C   UNL     1      -5.601  -0.712  -0.225  1.00  0.00     0.034 A 
ATOM     14  C   UNL     1      -7.235   0.265   1.792  1.00  0.00     0.112 A 
ATOM     15  C   UNL     1      -6.948  -1.076  -0.143  1.00  0.00     0.112 A 
ATOM     16  N   UNL     1      -7.730  -0.584   0.853  1.00  0.00    -0.265 NA
ENDBRANCH   8  11
ENDBRANCH   1   7
BRANCH   4  17
ATOM     17  N   UNL     1       2.814   0.283  -0.844  1.00  0.00    -0.322 N 
ATOM     18  C   UNL     1       3.704   0.375   0.281  1.00  0.00     0.255 C 
ATOM     19  H   UNL     1       3.231   0.297  -1.802  1.00  0.00     0.170 HD
ATOM     20  O   UNL     1       3.303   0.906   1.353  1.00  0.00    -0.269 OA
BRANCH  18  21
ATOM     21  C   UNL     1       5.105  -0.102   0.183  1.00  0.00     0.043 A 
ATOM     22  C   UNL     1       6.069   0.334   1.109  1.00  0.00     0.034 A 
ATOM     23  C   UNL     1       5.495  -1.010  -0.818  1.00  0.00     0.034 A 
ATOM     24  C   UNL     1       7.384  -0.127   1.010  1.00  0.00     0.112 A 
ATOM     25  C   UNL     1       6.821  -1.445  -0.879  1.00  0.00     0.112 A 
ATOM     26  N   UNL     1       7.729  -0.998   0.027  1.00  0.00    -0.265 NA
ENDBRANCH  18  21
ENDBRANCH   4  17
TORSDOF 4
