REMARK SMILES c1ccc(-c2nc3ccccc3s2)nc1
REMARK SMILES IDX 5 1 6 2 7 3 8 4 9 5 10 6 11 7 12 8 13 9 4 10 1 11 2 12 15 13
REMARK SMILES IDX 3 14 14 15
REMARK H PARENT
ROOT
ATOM      1  C   UNL     1      -0.300   0.163   0.053  1.00  0.00     0.143 A 
ATOM      2  N   UNL     1       0.287  -0.832  -0.658  1.00  0.00    -0.234 NA
ATOM      3  C   UNL     1       1.640  -0.719  -0.639  1.00  0.00     0.082 A 
ATOM      4  C   UNL     1       2.515  -1.596  -1.282  1.00  0.00     0.030 A 
ATOM      5  C   UNL     1       3.898  -1.365  -1.182  1.00  0.00     0.002 A 
ATOM      6  C   UNL     1       4.387  -0.267  -0.446  1.00  0.00     0.002 A 
ATOM      7  C   UNL     1       3.498   0.609   0.197  1.00  0.00     0.021 A 
ATOM      8  C   UNL     1       2.133   0.357   0.082  1.00  0.00     0.055 A 
ATOM      9  S   UNL     1       0.848   1.217   0.730  1.00  0.00    -0.112 S 
ENDROOT
BRANCH   1  10
ATOM     10  C   UNL     1      -1.763   0.280   0.197  1.00  0.00     0.099 A 
ATOM     11  C   UNL     1      -4.534   0.426   0.417  1.00  0.00     0.020 A 
ATOM     12  C   UNL     1      -3.741   1.386   1.046  1.00  0.00     0.004 A 
ATOM     13  C   UNL     1      -3.920  -0.594  -0.313  1.00  0.00     0.112 A 
ATOM     14  C   UNL     1      -2.350   1.319   0.939  1.00  0.00     0.031 A 
ATOM     15  N   UNL     1      -2.564  -0.643  -0.405  1.00  0.00    -0.254 NA
ENDBRANCH   1  10
TORSDOF 1
