REMARK SMILES Nc1nnc(Nc2ccccc2)[nH]1
REMARK SMILES IDX 13 1 2 2 3 3 4 4 5 5 1 7 6 10 7 12 8 13 12 14 9 15 11 16
REMARK SMILES IDX 10 17
REMARK H PARENT 13 6 1 8 1 9 6 11
ROOT
ATOM      1  N   UNL     1       2.618  -0.503  -0.298  1.00  0.00    -0.294 N 
ATOM      2  C   UNL     1       3.288   0.338   0.507  1.00  0.00     0.220 A 
ATOM      3  N   UNL     1       2.467   1.149   1.200  1.00  0.00    -0.110 NA
ATOM      4  N   UNL     1       1.232   0.831   0.839  1.00  0.00    -0.110 NA
ATOM      5  C   UNL     1       1.339  -0.159  -0.071  1.00  0.00     0.227 A 
ATOM      6  H   UNL     1       2.995  -1.242  -0.932  1.00  0.00     0.173 HD
ENDROOT
BRANCH   2   7
ATOM      7  N   UNL     1       4.708   0.364   0.623  1.00  0.00    -0.368 N 
ATOM      8  H   UNL     1       5.171   1.040   1.269  1.00  0.00     0.159 HD
ATOM      9  H   UNL     1       5.295  -0.293   0.062  1.00  0.00     0.159 HD
ENDBRANCH   2   7
BRANCH   5  10
ATOM     10  N   UNL     1       0.223  -0.829  -0.675  1.00  0.00    -0.324 N 
ATOM     11  H   UNL     1       0.409  -1.744  -1.145  1.00  0.00     0.170 HD
BRANCH  10  12
ATOM     12  C   UNL     1      -1.139  -0.384  -0.564  1.00  0.00     0.041 A 
ATOM     13  C   UNL     1      -2.173  -1.334  -0.542  1.00  0.00     0.026 A 
ATOM     14  C   UNL     1      -1.465   0.985  -0.538  1.00  0.00     0.026 A 
ATOM     15  C   UNL     1      -3.508  -0.925  -0.456  1.00  0.00     0.002 A 
ATOM     16  C   UNL     1      -2.801   1.389  -0.453  1.00  0.00     0.002 A 
ATOM     17  C   UNL     1      -3.821   0.436  -0.407  1.00  0.00     0.000 A 
ENDBRANCH  10  12
ENDBRANCH   5  10
TORSDOF 3
