REMARK SMILES C=C(O)c1c(OC(C)=O)c(C)c(OC(C)=O)c2c1O[C@@H]1CC(=O)C(C(C)=O)=C(O)[C@]21C
REMARK SMILES IDX 4 1 5 2 10 3 11 4 12 5 17 6 18 7 19 8 20 9 21 10 22 11 23 12
REMARK SMILES IDX 24 13 28 14 30 15 31 16 2 17 1 18 3 19 6 21 7 22 8 23 9 24
REMARK SMILES IDX 13 25 14 26 15 27 16 28 29 29 25 31 26 32 27 33
REMARK H PARENT 3 20 29 30
ROOT
ATOM      1  C   UNL     1      -1.240   1.413   0.900  1.00  0.00     0.101 A 
ATOM      2  C   UNL     1      -2.206   0.934  -0.021  1.00  0.00     0.152 A 
ATOM      3  C   UNL     1      -2.037  -0.334  -0.635  1.00  0.00     0.036 A 
ATOM      4  C   UNL     1      -3.109  -0.853  -1.561  1.00  0.00     0.052 C 
ATOM      5  C   UNL     1      -0.882  -1.111  -0.348  1.00  0.00     0.145 A 
ATOM      6  C   UNL     1       0.023  -0.638   0.617  1.00  0.00     0.055 A 
ATOM      7  C   UNL     1      -0.167   0.579   1.217  1.00  0.00     0.142 A 
ATOM      8  O   UNL     1       0.826   0.855   2.131  1.00  0.00    -0.487 OA
ATOM      9  C   UNL     1       1.660  -0.284   2.308  1.00  0.00     0.199 C 
ATOM     10  C   UNL     1       3.121   0.130   2.429  1.00  0.00     0.128 C 
ATOM     11  C   UNL     1       3.655   0.535   1.101  1.00  0.00     0.173 C 
ATOM     12  O   UNL     1       4.411   1.540   1.012  1.00  0.00    -0.294 OA
ATOM     13  C   UNL     1       3.381  -0.314  -0.071  1.00  0.00     0.099 C 
ATOM     14  C   UNL     1       2.346  -1.190  -0.049  1.00  0.00     0.121 C 
ATOM     15  C   UNL     1       1.328  -1.236   1.097  1.00  0.00     0.095 C 
ATOM     16  C   UNL     1       1.145  -2.683   1.596  1.00  0.00     0.029 C 
ENDROOT
BRANCH   1  17
ATOM     17  C   UNL     1      -1.318   2.762   1.509  1.00  0.00     0.123 C 
ATOM     18  C   UNL     1      -1.486   3.847   0.755  1.00  0.00     0.059 C 
BRANCH  17  19
ATOM     19  O   UNL     1      -1.195   2.913   2.889  1.00  0.00    -0.508 OA
ATOM     20  H   UNL     1      -1.103   2.113   3.503  1.00  0.00     0.293 HD
ENDBRANCH  17  19
ENDBRANCH   1  17
BRANCH   2  21
ATOM     21  O   UNL     1      -3.343   1.693  -0.336  1.00  0.00    -0.425 OA
BRANCH  21  22
ATOM     22  C   UNL     1      -4.266   2.134   0.619  1.00  0.00     0.308 C 
ATOM     23  C   UNL     1      -5.364   3.053   0.206  1.00  0.00     0.139 C 
ATOM     24  O   UNL     1      -4.218   1.711   1.806  1.00  0.00    -0.252 OA
ENDBRANCH  21  22
ENDBRANCH   2  21
BRANCH   5  25
ATOM     25  O   UNL     1      -0.649  -2.345  -0.969  1.00  0.00    -0.426 OA
BRANCH  25  26
ATOM     26  C   UNL     1      -0.564  -2.513  -2.357  1.00  0.00     0.308 C 
ATOM     27  C   UNL     1      -0.483  -3.887  -2.927  1.00  0.00     0.139 C 
ATOM     28  O   UNL     1      -0.506  -1.516  -3.127  1.00  0.00    -0.252 OA
ENDBRANCH  25  26
ENDBRANCH   5  25
BRANCH  14  29
ATOM     29  O   UNL     1       2.128  -2.065  -1.120  1.00  0.00    -0.510 OA
ATOM     30  H   UNL     1       2.670  -2.070  -1.974  1.00  0.00     0.293 HD
ENDBRANCH  14  29
BRANCH  13  31
ATOM     31  C   UNL     1       4.301  -0.233  -1.227  1.00  0.00     0.166 C 
ATOM     32  C   UNL     1       4.499   1.054  -1.963  1.00  0.00     0.094 C 
ATOM     33  O   UNL     1       4.974  -1.244  -1.562  1.00  0.00    -0.294 OA
ENDBRANCH  13  31
TORSDOF 8
