REMARK SMILES CCCCCC[C@H](C)OC(=O)c1ccccc1C(=O)[O-]
REMARK SMILES IDX 7 1 8 2 9 3 10 4 11 5 12 6 17 7 16 8 15 9 13 10 14 11 18 12
REMARK SMILES IDX 19 13 20 14 6 15 5 16 4 17 3 18 2 19 1 20
REMARK H PARENT
ROOT
ATOM      1  C   UNL     1      -0.355  -1.332  -0.167  1.00  0.00     0.173 C 
ATOM      2  C   UNL     1      -0.473  -2.544  -1.093  1.00  0.00     0.053 C 
ENDROOT
BRANCH   1   3
ATOM      3  O   UNL     1      -1.654  -0.759  -0.015  1.00  0.00    -0.459 OA
BRANCH   3   4
ATOM      4  C   UNL     1      -2.002   0.113   1.025  1.00  0.00     0.339 C 
ATOM      5  O   UNL     1      -1.176   0.368   1.944  1.00  0.00    -0.246 OA
BRANCH   4   6
ATOM      6  C   UNL     1      -3.366   0.685   1.083  1.00  0.00     0.069 A 
ATOM      7  C   UNL     1      -4.106   1.024  -0.084  1.00  0.00     0.012 A 
ATOM      8  C   UNL     1      -5.445   1.433   0.050  1.00  0.00     0.011 A 
ATOM      9  C   UNL     1      -6.034   1.548   1.310  1.00  0.00     0.001 A 
ATOM     10  C   UNL     1      -3.973   0.829   2.345  1.00  0.00     0.016 A 
ATOM     11  C   UNL     1      -5.296   1.258   2.455  1.00  0.00     0.001 A 
BRANCH   7  12
ATOM     12  C   UNL     1      -3.509   1.035  -1.439  1.00  0.00     0.072 C 
ATOM     13  O   UNL     1      -2.300   1.343  -1.609  1.00  0.00    -0.545 OA
ATOM     14  O   UNL     1      -4.300   0.768  -2.551  1.00  0.00    -0.545 OA
ENDBRANCH   7  12
ENDBRANCH   4   6
ENDBRANCH   3   4
ENDBRANCH   1   3
BRANCH   1  15
ATOM     15  C   UNL     1       0.619  -0.274  -0.730  1.00  0.00     0.045 C 
BRANCH  15  16
ATOM     16  C   UNL     1       2.084  -0.735  -0.688  1.00  0.00     0.004 C 
BRANCH  16  17
ATOM     17  C   UNL     1       3.027   0.401  -1.113  1.00  0.00     0.000 C 
BRANCH  17  18
ATOM     18  C   UNL     1       4.488  -0.059  -1.270  1.00  0.00    -0.000 C 
BRANCH  18  19
ATOM     19  C   UNL     1       5.143  -0.583   0.021  1.00  0.00    -0.003 C 
ATOM     20  C   UNL     1       5.221   0.472   1.123  1.00  0.00     0.004 C 
ENDBRANCH  18  19
ENDBRANCH  17  18
ENDBRANCH  16  17
ENDBRANCH  15  16
ENDBRANCH   1  15
TORSDOF 9
