REMARK SMILES Cc1cc2nc(-c3ccccn3)c(-c3ccccn3)nc2cc1C
REMARK SMILES IDX 1 1 2 2 3 3 4 4 5 5 6 6 13 7 20 8 21 9 22 10 23 11 24 12
REMARK SMILES IDX 7 13 8 14 12 15 9 16 11 17 10 18 14 19 15 20 19 21 16 22
REMARK SMILES IDX 18 23 17 24
REMARK H PARENT
ROOT
ATOM      1  C   UNL     1       5.421   1.383  -0.433  1.00  0.00     0.044 C 
ATOM      2  C   UNL     1       4.114   0.642  -0.331  1.00  0.00    -0.046 A 
ATOM      3  C   UNL     1       2.908   1.359  -0.421  1.00  0.00     0.034 A 
ATOM      4  C   UNL     1       1.683   0.696  -0.324  1.00  0.00     0.090 A 
ATOM      5  N   UNL     1       0.516   1.385  -0.400  1.00  0.00    -0.242 NA
ATOM      6  C   UNL     1      -0.693   0.767  -0.302  1.00  0.00     0.117 A 
ATOM      7  C   UNL     1      -0.731  -0.645  -0.152  1.00  0.00     0.117 A 
ATOM      8  N   UNL     1       0.448  -1.323  -0.060  1.00  0.00    -0.242 NA
ATOM      9  C   UNL     1       1.647  -0.693  -0.134  1.00  0.00     0.090 A 
ATOM     10  C   UNL     1       2.838  -1.417  -0.038  1.00  0.00     0.034 A 
ATOM     11  C   UNL     1       4.079  -0.761  -0.127  1.00  0.00    -0.046 A 
ATOM     12  C   UNL     1       5.347  -1.567  -0.025  1.00  0.00     0.044 C 
ENDROOT
BRANCH   6  13
ATOM     13  C   UNL     1      -1.901   1.616  -0.314  1.00  0.00     0.091 A 
ATOM     14  C   UNL     1      -2.893   1.487   0.672  1.00  0.00     0.031 A 
ATOM     15  N   UNL     1      -2.015   2.595  -1.254  1.00  0.00    -0.255 NA
ATOM     16  C   UNL     1      -4.002   2.335   0.643  1.00  0.00     0.004 A 
ATOM     17  C   UNL     1      -3.086   3.432  -1.295  1.00  0.00     0.112 A 
ATOM     18  C   UNL     1      -4.104   3.312  -0.347  1.00  0.00     0.020 A 
ENDBRANCH   6  13
BRANCH   7  19
ATOM     19  C   UNL     1      -1.988  -1.427  -0.167  1.00  0.00     0.091 A 
ATOM     20  C   UNL     1      -2.108  -2.599   0.598  1.00  0.00     0.031 A 
ATOM     21  N   UNL     1      -3.025  -1.044  -0.966  1.00  0.00    -0.255 NA
ATOM     22  C   UNL     1      -3.295  -3.333   0.547  1.00  0.00     0.004 A 
ATOM     23  C   UNL     1      -4.187  -1.746  -1.028  1.00  0.00     0.112 A 
ATOM     24  C   UNL     1      -4.344  -2.906  -0.268  1.00  0.00     0.020 A 
ENDBRANCH   7  19
TORSDOF 2
