REMARK SMILES C=C(O)c1c(OC(C)=O)c(C)c(OC(C)=O)c2c1O[C@H]1CC(O)=C(C(C)=O)C(=O)[C@@]21C
REMARK SMILES IDX 22 1 24 2 28 3 29 4 30 5 31 6 17 7 12 8 10 9 11 10 5 11 4 12
REMARK SMILES IDX 18 13 19 14 20 15 21 16 23 17 25 19 26 20 27 21 13 22 14 23
REMARK SMILES IDX 15 24 16 25 2 26 1 27 3 28 6 30 7 31 8 32 9 33
REMARK H PARENT 23 18 3 29
ROOT
ATOM      1  C   UNL     1       3.585   0.406  -0.208  1.00  0.00     0.110 C 
ATOM      2  C   UNL     1       2.981  -0.554   0.519  1.00  0.00     0.099 C 
ATOM      3  C   UNL     1       2.095  -1.516  -0.175  1.00  0.00     0.184 C 
ATOM      4  O   UNL     1       1.906  -2.658   0.327  1.00  0.00    -0.293 OA
ATOM      5  C   UNL     1       1.353  -1.106  -1.438  1.00  0.00     0.101 C 
ATOM      6  C   UNL     1       1.162  -2.298  -2.397  1.00  0.00     0.029 C 
ATOM      7  C   UNL     1       0.033  -0.491  -1.052  1.00  0.00     0.056 A 
ATOM      8  C   UNL     1      -1.056  -1.076  -0.392  1.00  0.00     0.145 A 
ATOM      9  C   UNL     1      -2.194  -0.275  -0.114  1.00  0.00     0.036 A 
ATOM     10  C   UNL     1      -3.454  -0.911   0.418  1.00  0.00     0.052 C 
ATOM     11  C   UNL     1      -2.157   1.121  -0.396  1.00  0.00     0.152 A 
ATOM     12  C   UNL     1      -1.026   1.686  -1.032  1.00  0.00     0.101 A 
ATOM     13  C   UNL     1       0.039   0.843  -1.352  1.00  0.00     0.142 A 
ATOM     14  O   UNL     1       1.218   1.222  -1.957  1.00  0.00    -0.487 OA
ATOM     15  C   UNL     1       2.054   0.091  -2.183  1.00  0.00     0.199 C 
ATOM     16  C   UNL     1       3.486   0.383  -1.711  1.00  0.00     0.122 C 
ENDROOT
BRANCH   1  17
ATOM     17  O   UNL     1       4.334   1.408   0.408  1.00  0.00    -0.511 OA
ATOM     18  H   UNL     1       4.806   2.125  -0.130  1.00  0.00     0.293 HD
ENDBRANCH   1  17
BRANCH   2  19
ATOM     19  C   UNL     1       3.136  -0.657   1.994  1.00  0.00     0.166 C 
ATOM     20  C   UNL     1       4.405  -0.283   2.697  1.00  0.00     0.094 C 
ATOM     21  O   UNL     1       2.168  -1.076   2.685  1.00  0.00    -0.294 OA
ENDBRANCH   2  19
BRANCH   8  22
ATOM     22  O   UNL     1      -1.005  -2.432  -0.050  1.00  0.00    -0.426 OA
BRANCH  22  23
ATOM     23  C   UNL     1      -1.123  -2.899   1.264  1.00  0.00     0.308 C 
ATOM     24  C   UNL     1      -1.224  -4.364   1.517  1.00  0.00     0.139 C 
ATOM     25  O   UNL     1      -1.135  -2.096   2.236  1.00  0.00    -0.252 OA
ENDBRANCH  22  23
ENDBRANCH   8  22
BRANCH  12  26
ATOM     26  C   UNL     1      -0.952   3.125  -1.375  1.00  0.00     0.123 C 
ATOM     27  C   UNL     1      -1.197   4.066  -0.465  1.00  0.00     0.059 C 
BRANCH  26  28
ATOM     28  O   UNL     1      -0.594   3.515  -2.665  1.00  0.00    -0.508 OA
ATOM     29  H   UNL     1      -0.426   2.835  -3.396  1.00  0.00     0.293 HD
ENDBRANCH  26  28
ENDBRANCH  12  26
BRANCH  11  30
ATOM     30  O   UNL     1      -3.253   1.945  -0.103  1.00  0.00    -0.425 OA
BRANCH  30  31
ATOM     31  C   UNL     1      -3.741   2.143   1.194  1.00  0.00     0.308 C 
ATOM     32  C   UNL     1      -5.017   2.886   1.393  1.00  0.00     0.139 C 
ATOM     33  O   UNL     1      -3.117   1.697   2.195  1.00  0.00    -0.252 OA
ENDBRANCH  30  31
ENDBRANCH  11  30
TORSDOF 8
