REMARK SMILES O=C1c2ccccc2C(=O)N1c1nnc[nH]1
REMARK SMILES IDX 11 1 2 2 1 3 3 4 4 5 5 6 6 7 7 8 8 9 9 10 10 11 12 12 16 13
REMARK SMILES IDX 15 14 14 15 13 16
REMARK H PARENT 16 17
ROOT
ATOM      1  N   UNL     1       1.034  -0.017  -0.172  1.00  0.00    -0.209 N 
ATOM      2  C   UNL     1       0.306  -0.621  -1.246  1.00  0.00     0.268 C 
ATOM      3  O   UNL     1       0.838  -1.200  -2.231  1.00  0.00    -0.268 OA
ATOM      4  C   UNL     1      -1.127  -0.465  -1.030  1.00  0.00     0.053 A 
ATOM      5  C   UNL     1      -2.214  -0.884  -1.795  1.00  0.00     0.015 A 
ATOM      6  C   UNL     1      -3.506  -0.586  -1.326  1.00  0.00     0.001 A 
ATOM      7  C   UNL     1      -3.683   0.117  -0.114  1.00  0.00     0.001 A 
ATOM      8  C   UNL     1      -2.569   0.528   0.640  1.00  0.00     0.015 A 
ATOM      9  C   UNL     1      -1.300   0.221   0.154  1.00  0.00     0.053 A 
ATOM     10  C   UNL     1       0.023   0.506   0.698  1.00  0.00     0.268 C 
ATOM     11  O   UNL     1       0.249   1.122   1.774  1.00  0.00    -0.268 OA
ENDROOT
BRANCH   1  12
ATOM     12  C   UNL     1       2.462   0.038  -0.024  1.00  0.00     0.238 A 
ATOM     13  N   UNL     1       3.103   0.618   1.006  1.00  0.00    -0.313 N 
ATOM     14  C   UNL     1       4.398   0.418   0.708  1.00  0.00     0.224 A 
ATOM     15  N   UNL     1       4.540  -0.253  -0.452  1.00  0.00    -0.137 NA
ATOM     16  N   UNL     1       3.322  -0.494  -0.913  1.00  0.00    -0.111 NA
ATOM     17  H   UNL     1       2.716   1.108   1.841  1.00  0.00     0.171 HD
ENDBRANCH   1  12
TORSDOF 1
