REMARK SMILES Oc1c(Cl)cc(Cl)cc1[C@@H]1Nc2ccccc2-n2cccc21
REMARK SMILES IDX 2 1 3 2 4 3 5 4 6 5 7 6 8 7 9 8 1 9 10 11 11 12 22 13 12 14
REMARK SMILES IDX 21 15 18 16 13 17 17 18 20 19 19 20 14 21 16 22 15 23
REMARK H PARENT 1 10 11 24
ROOT
ATOM      1  C   UNL     1       2.619  -1.390  -0.168  1.00  0.00     0.139 A 
ATOM      2  C   UNL     1       3.941  -1.411  -0.644  1.00  0.00     0.084 A 
ATOM      3  Cl  UNL     1       4.702  -2.926  -1.107  1.00  0.00    -0.080 Cl
ATOM      4  C   UNL     1       4.698  -0.239  -0.667  1.00  0.00     0.045 A 
ATOM      5  C   UNL     1       4.158   0.945  -0.172  1.00  0.00     0.043 A 
ATOM      6  Cl  UNL     1       5.153   2.385  -0.061  1.00  0.00    -0.084 Cl
ATOM      7  C   UNL     1       2.825   0.981   0.244  1.00  0.00     0.030 A 
ATOM      8  C   UNL     1       1.983  -0.141   0.100  1.00  0.00     0.025 A 
ENDROOT
BRANCH   1   9
ATOM      9  O   UNL     1       2.018  -2.620   0.105  1.00  0.00    -0.506 OA
ATOM     10  H   UNL     1       1.288  -2.730   0.798  1.00  0.00     0.293 HD
ENDBRANCH   1   9
BRANCH   8  11
ATOM     11  C   UNL     1       0.490   0.004   0.446  1.00  0.00     0.161 C 
ATOM     12  N   UNL     1      -0.344  -1.123  -0.009  1.00  0.00    -0.371 N 
ATOM     13  C   UNL     1      -0.229   1.267  -0.030  1.00  0.00     0.050 A 
ATOM     14  C   UNL     1      -1.753  -1.082   0.271  1.00  0.00     0.059 A 
ATOM     15  C   UNL     1       0.240   2.414  -0.659  1.00  0.00     0.026 A 
ATOM     16  N   UNL     1      -1.576   1.330   0.056  1.00  0.00    -0.316 N 
ATOM     17  C   UNL     1      -2.502  -2.255   0.410  1.00  0.00     0.028 A 
ATOM     18  C   UNL     1      -2.382   0.173   0.337  1.00  0.00     0.069 A 
ATOM     19  C   UNL     1      -0.867   3.204  -0.910  1.00  0.00     0.020 A 
ATOM     20  C   UNL     1      -1.972   2.506  -0.467  1.00  0.00     0.092 A 
ATOM     21  C   UNL     1      -3.877  -2.174   0.660  1.00  0.00     0.002 A 
ATOM     22  C   UNL     1      -3.762   0.250   0.582  1.00  0.00     0.029 A 
ATOM     23  C   UNL     1      -4.503  -0.925   0.751  1.00  0.00     0.002 A 
ATOM     24  H   UNL     1      -0.040  -1.736  -0.798  1.00  0.00     0.161 HD
ENDBRANCH   8  11
TORSDOF 2
