REMARK SMILES CC[C@@H](C)NC(=O)CC(C)C
REMARK SMILES IDX 5 1 6 2 7 3 3 5 4 6 2 7 1 8 8 9 9 10 10 11 11 12
REMARK H PARENT 5 4
ROOT
ATOM      1  N   UNL     1      -0.801  -0.394  -0.388  1.00  0.00    -0.354 N 
ATOM      2  C   UNL     1       0.390  -1.179  -0.227  1.00  0.00     0.220 C 
ATOM      3  O   UNL     1       0.397  -2.176   0.546  1.00  0.00    -0.275 OA
ATOM      4  H   UNL     1      -0.772   0.424  -1.038  1.00  0.00     0.163 HD
ENDROOT
BRANCH   1   5
ATOM      5  C   UNL     1      -2.045  -0.702   0.325  1.00  0.00     0.078 C 
ATOM      6  C   UNL     1      -2.781  -1.836  -0.395  1.00  0.00     0.031 C 
BRANCH   5   7
ATOM      7  C   UNL     1      -2.946   0.546   0.420  1.00  0.00     0.021 C 
ATOM      8  C   UNL     1      -2.307   1.650   1.262  1.00  0.00     0.006 C 
ENDBRANCH   5   7
ENDBRANCH   1   5
BRANCH   2   9
ATOM      9  C   UNL     1       1.651  -0.795  -0.945  1.00  0.00     0.103 C 
BRANCH   9  10
ATOM     10  C   UNL     1       2.612  -0.005  -0.032  1.00  0.00    -0.008 C 
ATOM     11  C   UNL     1       3.958   0.204  -0.737  1.00  0.00     0.008 C 
ATOM     12  C   UNL     1       2.018   1.352   0.377  1.00  0.00     0.008 C 
ENDBRANCH   9  10
ENDBRANCH   2   9
TORSDOF 4
