REMARK SMILES COc1cc(S(N)(=O)=O)c(OC)cc1N
REMARK SMILES IDX 3 1 4 2 5 3 10 4 13 5 14 6 2 7 1 8 15 9 6 12 8 13 9 14 7 15
REMARK SMILES IDX 11 18 12 19
REMARK H PARENT 15 10 15 11 7 16 7 17
ROOT
ATOM      1  C   UNL     1       1.608  -0.042   0.136  1.00  0.00     0.143 A 
ATOM      2  C   UNL     1       0.636   0.712  -0.546  1.00  0.00     0.074 A 
ATOM      3  C   UNL     1      -0.726   0.394  -0.439  1.00  0.00     0.127 A 
ATOM      4  C   UNL     1      -1.130  -0.701   0.345  1.00  0.00     0.141 A 
ATOM      5  C   UNL     1      -0.157  -1.455   1.028  1.00  0.00     0.077 A 
ATOM      6  C   UNL     1       1.203  -1.131   0.928  1.00  0.00     0.078 A 
ENDROOT
BRANCH   1   7
ATOM      7  O   UNL     1       2.977   0.260   0.048  1.00  0.00    -0.495 OA
ATOM      8  C   UNL     1       3.522   1.332  -0.715  1.00  0.00     0.278 C 
ENDBRANCH   1   7
BRANCH   6   9
ATOM      9  N   UNL     1       2.169  -1.918   1.636  1.00  0.00    -0.396 N 
ATOM     10  H   UNL     1       1.869  -2.728   2.224  1.00  0.00     0.156 HD
ATOM     11  H   UNL     1       3.189  -1.705   1.583  1.00  0.00     0.156 HD
ENDBRANCH   6   9
BRANCH   3  12
ATOM     12  S   UNL     1      -1.926   1.355  -1.308  1.00  0.00     0.241 S 
ATOM     13  O   UNL     1      -2.497   0.536  -2.430  1.00  0.00    -0.207 OA
ATOM     14  O   UNL     1      -3.028   1.753  -0.365  1.00  0.00    -0.207 OA
BRANCH  12  15
ATOM     15  N   UNL     1      -1.210   2.788  -1.960  1.00  0.00    -0.225 NA
ATOM     16  H   UNL     1      -0.935   3.389  -1.151  1.00  0.00     0.137 HD
ATOM     17  H   UNL     1      -1.962   3.300  -2.473  1.00  0.00     0.137 HD
ENDBRANCH  12  15
ENDBRANCH   3  12
BRANCH   4  18
ATOM     18  O   UNL     1      -2.497  -1.013   0.423  1.00  0.00    -0.495 OA
ATOM     19  C   UNL     1      -3.040  -2.091   1.178  1.00  0.00     0.278 C 
ENDBRANCH   4  18
TORSDOF 5
