REMARK SMILES C=C(O)C1=C(O)[C@]2(C)c3c(OC(C)=O)c(C)c(OC(C)=O)c(C(=C)O)c3O[C@H]2CC1=O
REMARK SMILES IDX 4 1 5 2 7 3 8 4 9 5 10 6 15 7 16 8 17 9 22 10 26 11 27 12
REMARK SMILES IDX 28 13 29 14 30 15 31 16 2 17 1 18 3 19 6 21 11 23 12 24
REMARK SMILES IDX 13 25 14 26 23 27 24 28 25 29 18 31 19 32 20 33 21 34
REMARK H PARENT 3 20 6 22 25 30
ROOT
ATOM      1  C   UNL     1       3.817   0.165  -0.734  1.00  0.00     0.097 C 
ATOM      2  C   UNL     1       2.535  -0.310  -0.724  1.00  0.00     0.121 C 
ATOM      3  C   UNL     1       1.657   0.039   0.461  1.00  0.00     0.095 C 
ATOM      4  C   UNL     1       2.033  -0.864   1.664  1.00  0.00     0.029 C 
ATOM      5  C   UNL     1       0.153   0.049   0.359  1.00  0.00     0.055 A 
ATOM      6  C   UNL     1      -0.729  -0.967  -0.030  1.00  0.00     0.145 A 
ATOM      7  C   UNL     1      -2.114  -0.807   0.249  1.00  0.00     0.036 A 
ATOM      8  C   UNL     1      -3.071  -1.946  -0.004  1.00  0.00     0.052 C 
ATOM      9  C   UNL     1      -2.578   0.390   0.873  1.00  0.00     0.152 A 
ATOM     10  C   UNL     1      -1.654   1.369   1.310  1.00  0.00     0.101 A 
ATOM     11  C   UNL     1      -0.299   1.150   1.063  1.00  0.00     0.142 A 
ATOM     12  O   UNL     1       0.751   1.971   1.455  1.00  0.00    -0.487 OA
ATOM     13  C   UNL     1       1.881   1.546   0.714  1.00  0.00     0.199 C 
ATOM     14  C   UNL     1       3.275   1.825   1.260  1.00  0.00     0.128 C 
ATOM     15  C   UNL     1       4.269   1.139   0.333  1.00  0.00     0.173 C 
ATOM     16  O   UNL     1       5.496   1.383   0.481  1.00  0.00    -0.294 OA
ENDROOT
BRANCH   1  17
ATOM     17  C   UNL     1       4.779  -0.267  -1.773  1.00  0.00     0.122 C 
ATOM     18  C   UNL     1       5.501   0.629  -2.451  1.00  0.00     0.059 C 
BRANCH  17  19
ATOM     19  O   UNL     1       4.932  -1.629  -2.035  1.00  0.00    -0.508 OA
ATOM     20  H   UNL     1       5.578  -1.972  -2.737  1.00  0.00     0.293 HD
ENDBRANCH  17  19
ENDBRANCH   1  17
BRANCH   2  21
ATOM     21  O   UNL     1       2.024  -1.105  -1.751  1.00  0.00    -0.510 OA
ATOM     22  H   UNL     1       2.521  -1.291  -2.612  1.00  0.00     0.293 HD
ENDBRANCH   2  21
BRANCH   6  23
ATOM     23  O   UNL     1      -0.220  -2.134  -0.613  1.00  0.00    -0.426 OA
BRANCH  23  24
ATOM     24  C   UNL     1      -0.626  -2.614  -1.863  1.00  0.00     0.308 C 
ATOM     25  C   UNL     1      -0.135  -3.940  -2.332  1.00  0.00     0.139 C 
ATOM     26  O   UNL     1      -1.333  -1.903  -2.629  1.00  0.00    -0.252 OA
ENDBRANCH  23  24
ENDBRANCH   6  23
BRANCH  10  27
ATOM     27  C   UNL     1      -2.070   2.591   2.036  1.00  0.00     0.123 C 
ATOM     28  C   UNL     1      -3.075   3.354   1.598  1.00  0.00     0.059 C 
BRANCH  27  29
ATOM     29  O   UNL     1      -1.366   2.960   3.183  1.00  0.00    -0.508 OA
ATOM     30  H   UNL     1      -1.601   3.792   3.712  1.00  0.00     0.293 HD
ENDBRANCH  27  29
ENDBRANCH  10  27
BRANCH   9  31
ATOM     31  O   UNL     1      -3.943   0.584   1.131  1.00  0.00    -0.425 OA
BRANCH  31  32
ATOM     32  C   UNL     1      -4.923   0.594   0.132  1.00  0.00     0.308 C 
ATOM     33  C   UNL     1      -6.362   0.654   0.515  1.00  0.00     0.139 C 
ATOM     34  O   UNL     1      -4.602   0.607  -1.088  1.00  0.00    -0.252 OA
ENDBRANCH  31  32
ENDBRANCH   9  31
TORSDOF 9
