REMARK SMILES Nc1ccc(S(=O)(=O)Nc2cnc3ccccc3n2)cc1
REMARK SMILES IDX 2 1 3 2 4 3 5 4 20 5 21 6 1 7 6 10 7 11 8 12 9 13 10 15
REMARK SMILES IDX 11 16 19 17 12 18 18 19 13 20 17 21 14 22 16 23 15 24
REMARK H PARENT 1 8 1 9 9 14
ROOT
ATOM      1  C   UNL     1       3.152   0.784  -1.126  1.00  0.00     0.031 A 
ATOM      2  C   UNL     1       2.239   0.048  -1.895  1.00  0.00     0.027 A 
ATOM      3  C   UNL     1       1.597  -1.067  -1.349  1.00  0.00     0.024 A 
ATOM      4  C   UNL     1       1.863  -1.458  -0.028  1.00  0.00     0.088 A 
ATOM      5  C   UNL     1       2.772  -0.720   0.742  1.00  0.00     0.024 A 
ATOM      6  C   UNL     1       3.415   0.394   0.195  1.00  0.00     0.027 A 
ENDROOT
BRANCH   1   7
ATOM      7  N   UNL     1       3.807   1.926  -1.684  1.00  0.00    -0.399 N 
ATOM      8  H   UNL     1       3.616   2.225  -2.666  1.00  0.00     0.156 HD
ATOM      9  H   UNL     1       4.488   2.481  -1.119  1.00  0.00     0.156 HD
ENDBRANCH   1   7
BRANCH   4  10
ATOM     10  S   UNL     1       1.029  -2.833   0.689  1.00  0.00     0.263 S 
ATOM     11  O   UNL     1       2.047  -3.768   1.278  1.00  0.00    -0.201 OA
ATOM     12  O   UNL     1       0.236  -3.576  -0.350  1.00  0.00    -0.201 OA
BRANCH  10  13
ATOM     13  N   UNL     1      -0.039  -2.281   1.937  1.00  0.00    -0.262 N 
ATOM     14  H   UNL     1       0.050  -2.706   2.887  1.00  0.00     0.182 HD
BRANCH  13  15
ATOM     15  C   UNL     1      -1.014  -1.259   1.699  1.00  0.00     0.159 A 
ATOM     16  C   UNL     1      -1.844  -0.815   2.738  1.00  0.00     0.159 A 
ATOM     17  N   UNL     1      -1.140  -0.700   0.465  1.00  0.00    -0.227 NA
ATOM     18  N   UNL     1      -2.757   0.165   2.499  1.00  0.00    -0.251 NA
ATOM     19  C   UNL     1      -2.048   0.280   0.220  1.00  0.00     0.091 A 
ATOM     20  C   UNL     1      -2.880   0.725   1.267  1.00  0.00     0.089 A 
ATOM     21  C   UNL     1      -2.158   0.849  -1.053  1.00  0.00     0.031 A 
ATOM     22  C   UNL     1      -3.820   1.735   1.031  1.00  0.00     0.030 A 
ATOM     23  C   UNL     1      -3.099   1.859  -1.283  1.00  0.00     0.002 A 
ATOM     24  C   UNL     1      -3.927   2.301  -0.245  1.00  0.00     0.002 A 
ENDBRANCH  13  15
ENDBRANCH  10  13
ENDBRANCH   4  10
TORSDOF 4
