REMARK SMILES O=C(Nc1ccc(Cl)c(Cl)c1)Nc1ccccc1O
REMARK SMILES IDX 13 1 14 2 15 3 16 4 17 5 18 6 12 7 2 8 3 9 1 10 4 13 5 14
REMARK SMILES IDX 11 15 6 16 9 17 7 18 10 19 8 20 19 21
REMARK H PARENT 3 11 12 12 19 22
ROOT
ATOM      1  C   UNL     1       2.489   0.047   0.382  1.00  0.00     0.085 A 
ATOM      2  C   UNL     1       3.377   0.815   1.150  1.00  0.00     0.030 A 
ATOM      3  C   UNL     1       4.640   1.146   0.653  1.00  0.00     0.002 A 
ATOM      4  C   UNL     1       5.034   0.699  -0.610  1.00  0.00     0.004 A 
ATOM      5  C   UNL     1       4.170  -0.090  -1.373  1.00  0.00     0.048 A 
ATOM      6  C   UNL     1       2.902  -0.432  -0.879  1.00  0.00     0.139 A 
ENDROOT
BRANCH   1   7
ATOM      7  N   UNL     1       1.200  -0.283   0.923  1.00  0.00    -0.304 N 
ATOM      8  C   UNL     1      -0.025  -0.117   0.195  1.00  0.00     0.323 C 
ATOM      9  N   UNL     1      -1.251  -0.612   0.756  1.00  0.00    -0.308 N 
ATOM     10  O   UNL     1      -0.022   0.452  -0.930  1.00  0.00    -0.248 OA
ATOM     11  H   UNL     1      -1.180  -1.298   1.541  1.00  0.00     0.171 HD
ATOM     12  H   UNL     1       1.136  -0.504   1.942  1.00  0.00     0.172 HD
BRANCH   9  13
ATOM     13  C   UNL     1      -2.556  -0.322   0.227  1.00  0.00     0.044 A 
ATOM     14  C   UNL     1      -2.861   0.933  -0.328  1.00  0.00     0.028 A 
ATOM     15  C   UNL     1      -3.567  -1.291   0.320  1.00  0.00     0.048 A 
ATOM     16  C   UNL     1      -4.145   1.197  -0.813  1.00  0.00     0.024 A 
ATOM     17  C   UNL     1      -4.853  -1.030  -0.167  1.00  0.00     0.061 A 
ATOM     18  C   UNL     1      -5.143   0.219  -0.740  1.00  0.00     0.059 A 
ATOM     19  Cl  UNL     1      -6.081  -2.283  -0.043  1.00  0.00    -0.083 Cl
ATOM     20  Cl  UNL     1      -6.746   0.589  -1.361  1.00  0.00    -0.083 Cl
ENDBRANCH   9  13
ENDBRANCH   1   7
BRANCH   6  21
ATOM     21  O   UNL     1       2.068  -1.266  -1.624  1.00  0.00    -0.506 OA
ATOM     22  H   UNL     1       2.348  -1.627  -2.528  1.00  0.00     0.293 HD
ENDBRANCH   6  21
TORSDOF 3
