REMARK SMILES Cc1cc(Br)c(NC(=O)c2c(-c3c(Cl)cccc3Cl)noc2C)c(Br)c1
REMARK SMILES IDX 10 1 11 2 20 3 21 4 22 5 23 6 8 7 7 8 9 10 6 11 2 12 3 13
REMARK SMILES IDX 26 14 4 15 24 16 1 17 5 18 25 19 12 20 13 21 18 22 15 23
REMARK SMILES IDX 17 24 16 25 14 26 19 27
REMARK H PARENT 7 9
ROOT
ATOM      1  C   UNL     1      -1.724  -1.218   0.557  1.00  0.00     0.110 A 
ATOM      2  C   UNL     1      -2.987  -0.651   0.496  1.00  0.00     0.129 A 
ATOM      3  N   UNL     1      -3.909  -1.573   0.833  1.00  0.00    -0.079 NA
ATOM      4  O   UNL     1      -3.268  -2.674   1.101  1.00  0.00    -0.360 OA
ATOM      5  C   UNL     1      -1.971  -2.519   0.963  1.00  0.00     0.147 A 
ATOM      6  C   UNL     1      -0.975  -3.601   1.226  1.00  0.00     0.092 C 
ENDROOT
BRANCH   1   7
ATOM      7  C   UNL     1      -0.426  -0.552   0.334  1.00  0.00     0.261 C 
ATOM      8  N   UNL     1       0.702  -1.290  -0.156  1.00  0.00    -0.320 N 
ATOM      9  H   UNL     1       0.531  -2.193  -0.651  1.00  0.00     0.170 HD
ATOM     10  O   UNL     1      -0.322   0.687   0.545  1.00  0.00    -0.269 OA
BRANCH   8  11
ATOM     11  C   UNL     1       2.007  -0.703  -0.253  1.00  0.00     0.070 A 
ATOM     12  C   UNL     1       4.566   0.450  -0.463  1.00  0.00    -0.049 A 
ATOM     13  C   UNL     1       3.981   0.254   0.795  1.00  0.00     0.021 A 
ATOM     14  C   UNL     1       3.881   0.035  -1.614  1.00  0.00     0.021 A 
ATOM     15  C   UNL     1       2.708  -0.316   0.906  1.00  0.00     0.043 A 
ATOM     16  C   UNL     1       2.609  -0.537  -1.514  1.00  0.00     0.043 A 
ATOM     17  C   UNL     1       5.947   1.026  -0.573  1.00  0.00     0.044 C 
ATOM     18  Br  UNL     1       1.995  -0.618   2.660  1.00  0.00    -0.049 Br
ATOM     19  Br  UNL     1       1.700  -1.048  -3.122  1.00  0.00    -0.049 Br
ENDBRANCH   8  11
ENDBRANCH   1   7
BRANCH   2  20
ATOM     20  C   UNL     1      -3.324   0.735   0.111  1.00  0.00     0.042 A 
ATOM     21  C   UNL     1      -3.965   1.589   1.034  1.00  0.00     0.052 A 
ATOM     22  C   UNL     1      -3.020   1.218  -1.181  1.00  0.00     0.052 A 
ATOM     23  C   UNL     1      -4.278   2.903   0.670  1.00  0.00     0.021 A 
ATOM     24  C   UNL     1      -3.340   2.535  -1.528  1.00  0.00     0.021 A 
ATOM     25  C   UNL     1      -3.965   3.375  -0.605  1.00  0.00     0.003 A 
ATOM     26  Cl  UNL     1      -4.355   1.057   2.667  1.00  0.00    -0.084 Cl
ATOM     27  Cl  UNL     1      -2.288   0.189  -2.410  1.00  0.00    -0.084 Cl
ENDBRANCH   2  20
TORSDOF 3
