REMARK SMILES CCOC(=O)NC1c2ccccc2Oc2ccccc21
REMARK SMILES IDX 3 1 2 2 1 3 4 4 6 5 5 6 7 8 8 9 20 10 9 11 13 12 19 13 15 14
REMARK SMILES IDX 10 15 12 16 14 17 18 18 16 19 11 20 17 21
REMARK H PARENT 6 7
ROOT
ATOM      1  O   UNL     1       1.261   1.210  -2.294  1.00  0.00    -0.450 OA
ENDROOT
BRANCH   1   2
ATOM      2  C   UNL     1       2.532   1.851  -2.242  1.00  0.00     0.231 C 
ATOM      3  C   UNL     1       2.895   2.375  -3.622  1.00  0.00     0.049 C 
ENDBRANCH   1   2
BRANCH   1   4
ATOM      4  C   UNL     1       0.665   0.628  -1.172  1.00  0.00     0.407 C 
ATOM      5  N   UNL     1      -0.618   0.002  -1.308  1.00  0.00    -0.310 N 
ATOM      6  O   UNL     1       1.248   0.655  -0.053  1.00  0.00    -0.225 OA
ATOM      7  H   UNL     1      -1.066   0.002  -2.252  1.00  0.00     0.168 HD
BRANCH   5   8
ATOM      8  C   UNL     1      -1.335  -0.638  -0.199  1.00  0.00     0.154 C 
ATOM      9  C   UNL     1      -0.540  -1.818   0.323  1.00  0.00     0.022 A 
ATOM     10  C   UNL     1      -1.675   0.389   0.862  1.00  0.00     0.022 A 
ATOM     11  C   UNL     1      -0.254  -2.897  -0.531  1.00  0.00     0.010 A 
ATOM     12  C   UNL     1      -0.063  -1.843   1.648  1.00  0.00     0.133 A 
ATOM     13  C   UNL     1      -2.503   1.477   0.538  1.00  0.00     0.010 A 
ATOM     14  C   UNL     1      -1.157   0.282   2.168  1.00  0.00     0.133 A 
ATOM     15  C   UNL     1       0.505  -3.978  -0.074  1.00  0.00     0.001 A 
ATOM     16  C   UNL     1       0.700  -2.927   2.098  1.00  0.00     0.047 A 
ATOM     17  O   UNL     1      -0.350  -0.798   2.529  1.00  0.00    -0.457 OA
ATOM     18  C   UNL     1      -2.801   2.448   1.498  1.00  0.00     0.001 A 
ATOM     19  C   UNL     1      -1.455   1.262   3.122  1.00  0.00     0.047 A 
ATOM     20  C   UNL     1       0.983  -3.991   1.238  1.00  0.00     0.004 A 
ATOM     21  C   UNL     1      -2.275   2.342   2.787  1.00  0.00     0.004 A 
ENDBRANCH   5   8
ENDBRANCH   1   4
TORSDOF 3
