REMARK SMILES C#Cc1cccc(NC(=O)c2ccc(Cl)cc2Cl)c1
REMARK SMILES IDX 3 1 4 2 5 3 6 4 7 5 19 6 2 7 1 8 8 9 9 10 10 12 11 13 12 14
REMARK SMILES IDX 17 15 13 16 16 17 14 18 18 19 15 20
REMARK H PARENT 8 11
ROOT
ATOM      1  C   UNL     1       3.828   0.153   0.151  1.00  0.00     0.026 A 
ATOM      2  C   UNL     1       4.093  -1.158  -0.263  1.00  0.00     0.017 A 
ATOM      3  C   UNL     1       3.040  -2.007  -0.611  1.00  0.00     0.003 A 
ATOM      4  C   UNL     1       1.720  -1.550  -0.555  1.00  0.00     0.026 A 
ATOM      5  C   UNL     1       1.443  -0.228  -0.161  1.00  0.00     0.042 A 
ATOM      6  C   UNL     1       2.506   0.613   0.208  1.00  0.00     0.043 A 
ENDROOT
BRANCH   1   7
ATOM      7  C   UNL     1       4.912   1.026   0.519  1.00  0.00    -0.070 C 
ATOM      8  C   UNL     1       5.820   1.756   0.828  1.00  0.00     0.010 C 
ENDBRANCH   1   7
BRANCH   5   9
ATOM      9  N   UNL     1       0.094   0.260  -0.070  1.00  0.00    -0.322 N 
ATOM     10  C   UNL     1      -0.980  -0.189  -0.912  1.00  0.00     0.257 C 
ATOM     11  H   UNL     1      -0.102   1.051   0.585  1.00  0.00     0.170 HD
ATOM     12  O   UNL     1      -0.726  -0.731  -2.023  1.00  0.00    -0.269 OA
BRANCH  10  13
ATOM     13  C   UNL     1      -2.389   0.062  -0.535  1.00  0.00     0.058 A 
ATOM     14  C   UNL     1      -3.295   0.474  -1.528  1.00  0.00     0.017 A 
ATOM     15  C   UNL     1      -2.853  -0.111   0.790  1.00  0.00     0.055 A 
ATOM     16  C   UNL     1      -4.629   0.738  -1.208  1.00  0.00     0.021 A 
ATOM     17  C   UNL     1      -4.193   0.156   1.099  1.00  0.00     0.041 A 
ATOM     18  C   UNL     1      -5.078   0.584   0.106  1.00  0.00     0.042 A 
ATOM     19  Cl  UNL     1      -1.824  -0.741   2.074  1.00  0.00    -0.083 Cl
ATOM     20  Cl  UNL     1      -6.754   0.914   0.505  1.00  0.00    -0.084 Cl
ENDBRANCH  10  13
ENDBRANCH   5   9
TORSDOF 3
