REMARK SMILES O=C(Oc1ccccc1)N(c1ccccc1)c1ccccc1
REMARK SMILES IDX 1 1 2 2 10 3 3 4 4 5 5 6 9 7 6 8 8 9 7 10 11 11 12 12 16 13
REMARK SMILES IDX 13 14 15 15 14 16 17 17 18 18 22 19 19 20 21 21 20 22
REMARK H PARENT
ROOT
ATOM      1  O   UNL     1       0.823  -1.916  -0.058  1.00  0.00    -0.223 OA
ATOM      2  C   UNL     1       0.513  -0.705   0.118  1.00  0.00     0.424 C 
ATOM      3  N   UNL     1      -0.860  -0.289  -0.013  1.00  0.00    -0.246 N 
ENDROOT
BRANCH   2   4
ATOM      4  O   UNL     1       1.488   0.229   0.496  1.00  0.00    -0.410 OA
BRANCH   4   5
ATOM      5  C   UNL     1       2.874   0.045   0.389  1.00  0.00     0.132 A 
ATOM      6  C   UNL     1       3.453  -0.758  -0.612  1.00  0.00     0.047 A 
ATOM      7  C   UNL     1       3.708   0.722   1.289  1.00  0.00     0.047 A 
ATOM      8  C   UNL     1       4.843  -0.900  -0.684  1.00  0.00     0.004 A 
ATOM      9  C   UNL     1       5.096   0.578   1.215  1.00  0.00     0.004 A 
ATOM     10  C   UNL     1       5.664  -0.236   0.231  1.00  0.00     0.000 A 
ENDBRANCH   4   5
ENDBRANCH   2   4
BRANCH   3  11
ATOM     11  C   UNL     1      -1.799  -1.097  -0.755  1.00  0.00     0.052 A 
ATOM     12  C   UNL     1      -3.089  -1.332  -0.247  1.00  0.00     0.027 A 
ATOM     13  C   UNL     1      -1.446  -1.640  -2.004  1.00  0.00     0.027 A 
ATOM     14  C   UNL     1      -4.004  -2.103  -0.971  1.00  0.00     0.002 A 
ATOM     15  C   UNL     1      -2.364  -2.411  -2.724  1.00  0.00     0.002 A 
ATOM     16  C   UNL     1      -3.641  -2.643  -2.207  1.00  0.00     0.000 A 
ENDBRANCH   3  11
BRANCH   3  17
ATOM     17  C   UNL     1      -1.295   0.949   0.585  1.00  0.00     0.052 A 
ATOM     18  C   UNL     1      -0.939   1.269   1.908  1.00  0.00     0.027 A 
ATOM     19  C   UNL     1      -2.099   1.845  -0.142  1.00  0.00     0.027 A 
ATOM     20  C   UNL     1      -1.370   2.467   2.486  1.00  0.00     0.002 A 
ATOM     21  C   UNL     1      -2.528   3.042   0.440  1.00  0.00     0.002 A 
ATOM     22  C   UNL     1      -2.163   3.353   1.752  1.00  0.00     0.000 A 
ENDBRANCH   3  17
TORSDOF 4
