REMARK SMILES CC(C)(C)NC(=O)NC[C@@H]1CCC[C@H]1NC(=O)NC(C)(C)C
REMARK SMILES IDX 10 1 11 2 12 3 13 4 14 5 9 6 8 7 5 8 6 9 7 11 2 13 1 14 3 15
REMARK SMILES IDX 4 16 15 17 16 18 18 19 17 21 19 23 20 24 21 25 22 26
REMARK H PARENT 5 10 8 12 15 20 18 22
ROOT
ATOM      1  C   UNL     1       0.158  -1.590   0.239  1.00  0.00     0.031 C 
ATOM      2  C   UNL     1       0.679  -3.020   0.102  1.00  0.00     0.007 C 
ATOM      3  C   UNL     1      -0.554  -3.921   0.093  1.00  0.00     0.003 C 
ATOM      4  C   UNL     1      -1.771  -3.013  -0.071  1.00  0.00     0.025 C 
ATOM      5  C   UNL     1      -1.228  -1.627  -0.408  1.00  0.00     0.088 C 
ENDROOT
BRANCH   1   6
ATOM      6  C   UNL     1       1.080  -0.547  -0.420  1.00  0.00     0.123 C 
BRANCH   6   7
ATOM      7  N   UNL     1       2.370  -0.467   0.266  1.00  0.00    -0.338 N 
ATOM      8  N   UNL     1       4.655   0.469   0.523  1.00  0.00    -0.334 N 
ATOM      9  C   UNL     1       3.402   0.421  -0.183  1.00  0.00     0.315 C 
ATOM     10  H   UNL     1       4.747  -0.165   1.349  1.00  0.00     0.165 HD
ATOM     11  O   UNL     1       3.203   1.152  -1.191  1.00  0.00    -0.249 OA
ATOM     12  H   UNL     1       2.553  -1.058   1.108  1.00  0.00     0.165 HD
BRANCH   8  13
ATOM     13  C   UNL     1       5.798   1.334   0.169  1.00  0.00     0.033 C 
ATOM     14  C   UNL     1       5.390   2.818   0.252  1.00  0.00     0.034 C 
ATOM     15  C   UNL     1       6.305   0.996  -1.247  1.00  0.00     0.034 C 
ATOM     16  C   UNL     1       6.944   1.086   1.171  1.00  0.00     0.034 C 
ENDBRANCH   8  13
ENDBRANCH   6   7
ENDBRANCH   1   6
BRANCH   5  17
ATOM     17  N   UNL     1      -2.104  -0.568   0.104  1.00  0.00    -0.335 N 
ATOM     18  C   UNL     1      -3.392  -0.303  -0.469  1.00  0.00     0.315 C 
ATOM     19  N   UNL     1      -4.210   0.747   0.079  1.00  0.00    -0.334 N 
ATOM     20  H   UNL     1      -1.772   0.050   0.879  1.00  0.00     0.165 HD
ATOM     21  O   UNL     1      -3.796  -0.988  -1.446  1.00  0.00    -0.249 OA
ATOM     22  H   UNL     1      -3.809   1.274   0.888  1.00  0.00     0.165 HD
BRANCH  19  23
ATOM     23  C   UNL     1      -5.551   1.122  -0.411  1.00  0.00     0.033 C 
ATOM     24  C   UNL     1      -5.473   1.588  -1.878  1.00  0.00     0.034 C 
ATOM     25  C   UNL     1      -6.521  -0.068  -0.277  1.00  0.00     0.034 C 
ATOM     26  C   UNL     1      -6.089   2.289   0.444  1.00  0.00     0.034 C 
ENDBRANCH  19  23
ENDBRANCH   5  17
TORSDOF 5
