REMARK SMILES CC(=O)CC(=O)Nc1ccc2ccccc2c1
REMARK SMILES IDX 4 1 2 2 1 3 3 4 5 5 7 6 6 7 8 9 9 10 17 11 10 12 16 13 11 14
REMARK SMILES IDX 15 15 12 16 14 17 13 18
REMARK H PARENT 7 8
ROOT
ATOM      1  C   UNL     1      -3.758  -0.798  -0.935  1.00  0.00     0.175 C 
ENDROOT
BRANCH   1   2
ATOM      2  C   UNL     1      -4.307  -0.291   0.370  1.00  0.00     0.139 C 
ATOM      3  C   UNL     1      -4.652   1.156   0.561  1.00  0.00     0.088 C 
ATOM      4  O   UNL     1      -4.469  -1.070   1.297  1.00  0.00    -0.299 OA
ENDBRANCH   1   2
BRANCH   1   5
ATOM      5  C   UNL     1      -2.299  -1.103  -0.792  1.00  0.00     0.231 C 
ATOM      6  N   UNL     1      -1.348  -0.029  -0.717  1.00  0.00    -0.326 N 
ATOM      7  O   UNL     1      -1.917  -2.304  -0.753  1.00  0.00    -0.274 OA
ATOM      8  H   UNL     1      -1.663   0.921  -1.019  1.00  0.00     0.169 HD
BRANCH   6   9
ATOM      9  C   UNL     1       0.032  -0.197  -0.351  1.00  0.00     0.041 A 
ATOM     10  C   UNL     1       0.423  -1.143   0.614  1.00  0.00     0.027 A 
ATOM     11  C   UNL     1       1.001   0.642  -0.922  1.00  0.00     0.034 A 
ATOM     12  C   UNL     1       1.766  -1.275   0.975  1.00  0.00     0.011 A 
ATOM     13  C   UNL     1       2.353   0.516  -0.567  1.00  0.00    -0.016 A 
ATOM     14  C   UNL     1       2.739  -0.454   0.389  1.00  0.00    -0.018 A 
ATOM     15  C   UNL     1       3.326   1.344  -1.149  1.00  0.00     0.009 A 
ATOM     16  C   UNL     1       4.091  -0.579   0.744  1.00  0.00     0.009 A 
ATOM     17  C   UNL     1       4.669   1.209  -0.787  1.00  0.00     0.001 A 
ATOM     18  C   UNL     1       5.051   0.251   0.156  1.00  0.00     0.001 A 
ENDBRANCH   6   9
ENDBRANCH   1   5
TORSDOF 3
