REMARK SMILES COc1ccc(NC(=O)Oc2cc(C)ccc2C(C)C)cc1
REMARK SMILES IDX 7 1 8 2 9 3 6 5 3 6 4 7 22 8 5 9 21 10 2 11 1 12 10 13 11 14
REMARK SMILES IDX 12 15 17 16 13 17 16 18 15 19 14 20 18 21 19 22 20 23
REMARK H PARENT 7 4
ROOT
ATOM      1  N   UNL     1       1.335  -0.600  -1.244  1.00  0.00    -0.291 N 
ATOM      2  C   UNL     1       0.331   0.047  -0.451  1.00  0.00     0.417 C 
ATOM      3  O   UNL     1       0.646   0.962   0.359  1.00  0.00    -0.224 OA
ATOM      4  H   UNL     1       1.007  -1.168  -2.057  1.00  0.00     0.173 HD
ENDROOT
BRANCH   1   5
ATOM      5  C   UNL     1       2.751  -0.415  -1.069  1.00  0.00     0.044 A 
ATOM      6  C   UNL     1       5.540  -0.121  -0.778  1.00  0.00     0.119 A 
ATOM      7  C   UNL     1       4.701  -0.101   0.352  1.00  0.00     0.048 A 
ATOM      8  C   UNL     1       4.974  -0.303  -2.045  1.00  0.00     0.048 A 
ATOM      9  C   UNL     1       3.319  -0.255   0.207  1.00  0.00     0.030 A 
ATOM     10  C   UNL     1       3.593  -0.458  -2.190  1.00  0.00     0.030 A 
BRANCH   6  11
ATOM     11  O   UNL     1       6.932   0.032  -0.686  1.00  0.00    -0.497 OA
ATOM     12  C   UNL     1       7.640   0.224   0.535  1.00  0.00     0.278 C 
ENDBRANCH   6  11
ENDBRANCH   1   5
BRANCH   2  13
ATOM     13  O   UNL     1      -1.002  -0.363  -0.581  1.00  0.00    -0.410 OA
BRANCH  13  14
ATOM     14  C   UNL     1      -2.118   0.339  -0.097  1.00  0.00     0.136 A 
ATOM     15  C   UNL     1      -2.139   1.747  -0.087  1.00  0.00     0.051 A 
ATOM     16  C   UNL     1      -3.252  -0.379   0.348  1.00  0.00    -0.002 A 
ATOM     17  C   UNL     1      -3.260   2.444   0.380  1.00  0.00    -0.047 A 
ATOM     18  C   UNL     1      -4.364   0.336   0.838  1.00  0.00     0.008 A 
ATOM     19  C   UNL     1      -4.362   1.730   0.862  1.00  0.00     0.004 A 
ATOM     20  C   UNL     1      -3.253   3.944   0.423  1.00  0.00     0.044 C 
BRANCH  16  21
ATOM     21  C   UNL     1      -3.273  -1.901   0.334  1.00  0.00     0.017 C 
ATOM     22  C   UNL     1      -4.413  -2.433  -0.544  1.00  0.00     0.012 C 
ATOM     23  C   UNL     1      -3.364  -2.464   1.758  1.00  0.00     0.012 C 
ENDBRANCH  16  21
ENDBRANCH  13  14
ENDBRANCH   2  13
TORSDOF 5
