REMARK SMILES Nc1cnc(Nc2ccc(Br)cc2)nc1N
REMARK SMILES IDX 2 1 3 2 4 3 5 4 14 5 15 6 1 7 16 10 6 13 7 15 8 16 13 17
REMARK SMILES IDX 9 18 12 19 10 20 11 21
REMARK H PARENT 1 8 1 9 16 11 16 12 6 14
ROOT
ATOM      1  C   UNL     1       3.024  -0.314  -0.721  1.00  0.00     0.093 A 
ATOM      2  C   UNL     1       1.845  -0.087  -1.439  1.00  0.00     0.144 A 
ATOM      3  N   UNL     1       0.643  -0.110  -0.810  1.00  0.00    -0.219 NA
ATOM      4  C   UNL     1       0.554  -0.347   0.525  1.00  0.00     0.229 A 
ATOM      5  N   UNL     1       1.682  -0.594   1.239  1.00  0.00    -0.194 NA
ATOM      6  C   UNL     1       2.913  -0.587   0.661  1.00  0.00     0.152 A 
ENDROOT
BRANCH   1   7
ATOM      7  N   UNL     1       4.285  -0.247  -1.401  1.00  0.00    -0.394 N 
ATOM      8  H   UNL     1       5.198  -0.262  -0.901  1.00  0.00     0.156 HD
ATOM      9  H   UNL     1       4.315  -0.107  -2.436  1.00  0.00     0.156 HD
ENDBRANCH   1   7
BRANCH   6  10
ATOM     10  N   UNL     1       4.052  -0.879   1.477  1.00  0.00    -0.382 N 
ATOM     11  H   UNL     1       5.006  -1.034   1.090  1.00  0.00     0.158 HD
ATOM     12  H   UNL     1       3.925  -1.021   2.504  1.00  0.00     0.158 HD
ENDBRANCH   6  10
BRANCH   4  13
ATOM     13  N   UNL     1      -0.722  -0.398   1.180  1.00  0.00    -0.324 N 
ATOM     14  H   UNL     1      -0.768  -0.871   2.111  1.00  0.00     0.170 HD
BRANCH  13  15
ATOM     15  C   UNL     1      -1.952   0.059   0.592  1.00  0.00     0.041 A 
ATOM     16  C   UNL     1      -1.993   1.201  -0.229  1.00  0.00     0.027 A 
ATOM     17  C   UNL     1      -3.149  -0.609   0.893  1.00  0.00     0.027 A 
ATOM     18  C   UNL     1      -3.206   1.639  -0.768  1.00  0.00     0.018 A 
ATOM     19  C   UNL     1      -4.361  -0.169   0.351  1.00  0.00     0.018 A 
ATOM     20  C   UNL     1      -4.390   0.953  -0.483  1.00  0.00     0.018 A 
ATOM     21  Br  UNL     1      -6.046   1.555  -1.219  1.00  0.00    -0.051 Br
ENDBRANCH  13  15
ENDBRANCH   4  13
TORSDOF 4
