REMARK SMILES N=c1nc[nH]cc1-c1ccc2ccccc2c1
REMARK SMILES IDX 5 1 4 2 3 3 2 4 7 5 6 6 8 8 9 9 17 10 10 11 16 12 11 13
REMARK SMILES IDX 15 14 12 15 14 16 13 17 1 18
REMARK H PARENT 5 7 1 19
ROOT
ATOM      1  N   UNL     1      -3.797  -1.318   0.834  1.00  0.00    -0.352 N 
ATOM      2  C   UNL     1      -4.662  -0.278   0.718  1.00  0.00     0.199 A 
ATOM      3  N   UNL     1      -4.215   0.937   0.311  1.00  0.00    -0.219 NA
ATOM      4  C   UNL     1      -2.906   1.143   0.005  1.00  0.00     0.155 A 
ATOM      5  C   UNL     1      -1.989   0.076   0.106  1.00  0.00     0.042 A 
ATOM      6  C   UNL     1      -2.480  -1.165   0.540  1.00  0.00     0.096 A 
ATOM      7  H   UNL     1      -4.150  -2.249   1.150  1.00  0.00     0.167 HD
ENDROOT
BRANCH   5   8
ATOM      8  C   UNL     1      -0.549   0.228  -0.224  1.00  0.00    -0.013 A 
ATOM      9  C   UNL     1      -0.153   0.798  -1.445  1.00  0.00     0.009 A 
ATOM     10  C   UNL     1       0.432  -0.223   0.676  1.00  0.00     0.017 A 
ATOM     11  C   UNL     1       1.202   0.931  -1.761  1.00  0.00     0.009 A 
ATOM     12  C   UNL     1       1.794  -0.092   0.368  1.00  0.00    -0.018 A 
ATOM     13  C   UNL     1       2.183   0.491  -0.862  1.00  0.00    -0.018 A 
ATOM     14  C   UNL     1       2.777  -0.535   1.267  1.00  0.00     0.009 A 
ATOM     15  C   UNL     1       3.546   0.621  -1.170  1.00  0.00     0.009 A 
ATOM     16  C   UNL     1       4.132  -0.400   0.949  1.00  0.00     0.001 A 
ATOM     17  C   UNL     1       4.515   0.176  -0.266  1.00  0.00     0.001 A 
ENDBRANCH   5   8
BRANCH   4  18
ATOM     18  N   UNL     1      -2.512   2.325  -0.351  1.00  0.00    -0.282 NA
ATOM     19  H   UNL     1      -3.178   3.127  -0.420  1.00  0.00     0.189 HD
ENDBRANCH   4  18
TORSDOF 2
