REMARK SMILES C=C1S/C(=N\c2ccccc2Cl)N(C(=O)c2sc3ccccc3c2Cl)C12CCCCC2
REMARK SMILES IDX 1 1 2 2 3 3 4 4 13 5 26 6 27 7 28 8 29 9 30 10 31 11 5 12
REMARK SMILES IDX 6 13 7 14 11 15 8 16 10 17 9 18 12 19 14 20 15 21 16 22
REMARK SMILES IDX 17 23 24 24 18 25 23 26 19 27 22 28 20 29 21 30 25 31
REMARK H PARENT
ROOT
ATOM      1  C   UNL     1      -2.954  -2.520   1.676  1.00  0.00     0.023 C 
ATOM      2  C   UNL     1      -2.253  -1.661   0.923  1.00  0.00     0.012 C 
ATOM      3  S   UNL     1      -2.768   0.058   0.927  1.00  0.00    -0.054 SA
ATOM      4  C   UNL     1      -1.484   0.376  -0.263  1.00  0.00     0.176 C 
ATOM      5  N   UNL     1      -0.635  -0.732  -0.559  1.00  0.00    -0.275 N 
ATOM      6  C   UNL     1      -1.052  -2.018   0.035  1.00  0.00     0.081 C 
ATOM      7  C   UNL     1      -1.474  -2.980  -1.118  1.00  0.00     0.034 C 
ATOM      8  C   UNL     1      -1.532  -4.465  -0.734  1.00  0.00     0.003 C 
ATOM      9  C   UNL     1      -0.243  -4.918  -0.049  1.00  0.00     0.000 C 
ATOM     10  C   UNL     1       0.041  -4.089   1.203  1.00  0.00     0.003 C 
ATOM     11  C   UNL     1       0.133  -2.591   0.879  1.00  0.00     0.034 C 
ENDROOT
BRANCH   4  12
ATOM     12  N   UNL     1      -1.245   1.556  -0.762  1.00  0.00    -0.223 NA
BRANCH  12  13
ATOM     13  C   UNL     1      -2.026   2.745  -0.565  1.00  0.00     0.085 A 
ATOM     14  C   UNL     1      -3.424   2.730  -0.722  1.00  0.00     0.030 A 
ATOM     15  C   UNL     1      -1.375   3.966  -0.314  1.00  0.00     0.066 A 
ATOM     16  C   UNL     1      -4.164   3.906  -0.567  1.00  0.00     0.002 A 
ATOM     17  C   UNL     1      -2.123   5.140  -0.156  1.00  0.00     0.023 A 
ATOM     18  C   UNL     1      -3.514   5.108  -0.277  1.00  0.00     0.002 A 
ATOM     19  Cl  UNL     1       0.377   4.041  -0.172  1.00  0.00    -0.082 Cl
ENDBRANCH  12  13
ENDBRANCH   4  12
BRANCH   5  20
ATOM     20  C   UNL     1       0.588  -0.536  -1.296  1.00  0.00     0.272 C 
ATOM     21  O   UNL     1       0.709  -1.027  -2.449  1.00  0.00    -0.268 OA
BRANCH  20  22
ATOM     22  C   UNL     1       1.690   0.249  -0.702  1.00  0.00     0.112 A 
ATOM     23  S   UNL     1       1.733   0.735   0.920  1.00  0.00    -0.128 S 
ATOM     24  C   UNL     1       2.857   0.695  -1.343  1.00  0.00     0.072 A 
ATOM     25  C   UNL     1       3.214   1.512   0.815  1.00  0.00     0.037 A 
ATOM     26  C   UNL     1       3.705   1.406  -0.479  1.00  0.00     0.012 A 
ATOM     27  C   UNL     1       3.906   2.181   1.820  1.00  0.00     0.020 A 
ATOM     28  C   UNL     1       4.940   1.983  -0.805  1.00  0.00     0.011 A 
ATOM     29  C   UNL     1       5.145   2.757   1.502  1.00  0.00     0.002 A 
ATOM     30  C   UNL     1       5.660   2.659   0.195  1.00  0.00     0.001 A 
ATOM     31  Cl  UNL     1       3.225   0.423  -3.043  1.00  0.00    -0.082 Cl
ENDBRANCH  20  22
ENDBRANCH   5  20
TORSDOF 4
