REMARK SMILES CCOc1ccc2sc(=NS(=O)(=O)c3ccc(N)cc3)[nH]c2c1
REMARK SMILES IDX 10 1 9 2 21 3 22 4 8 5 23 6 7 7 4 8 6 9 5 10 3 12 2 13 1 14
REMARK SMILES IDX 11 15 12 16 13 17 14 18 15 19 20 20 16 21 19 22 17 23 18 24
REMARK H PARENT 21 11 18 25 18 26
ROOT
ATOM      1  N   UNL     1       1.526  -0.608  -0.412  1.00  0.00    -0.130 NA
ENDROOT
BRANCH   1   2
ATOM      2  C   UNL     1       0.273  -0.845  -0.660  1.00  0.00     0.200 A 
ATOM      3  N   UNL     1      -0.767  -0.193  -0.077  1.00  0.00    -0.330 N 
ATOM      4  C   UNL     1      -1.957  -0.658  -0.536  1.00  0.00     0.062 A 
ATOM      5  S   UNL     1      -0.241  -2.019  -1.763  1.00  0.00    -0.096 S 
ATOM      6  C   UNL     1      -3.208  -0.189  -0.127  1.00  0.00     0.074 A 
ATOM      7  C   UNL     1      -1.862  -1.672  -1.477  1.00  0.00     0.054 A 
ATOM      8  C   UNL     1      -4.373  -0.765  -0.689  1.00  0.00     0.121 A 
ATOM      9  C   UNL     1      -2.987  -2.258  -2.046  1.00  0.00     0.025 A 
ATOM     10  C   UNL     1      -4.249  -1.796  -1.645  1.00  0.00     0.048 A 
ATOM     11  H   UNL     1      -0.683   0.568   0.633  1.00  0.00     0.169 HD
BRANCH   8  12
ATOM     12  O   UNL     1      -5.662  -0.347  -0.329  1.00  0.00    -0.494 OA
BRANCH  12  13
ATOM     13  C   UNL     1      -5.939   0.680   0.620  1.00  0.00     0.226 C 
ATOM     14  C   UNL     1      -7.443   0.857   0.751  1.00  0.00     0.049 C 
ENDBRANCH  12  13
ENDBRANCH   8  12
ENDBRANCH   1   2
BRANCH   1  15
ATOM     15  S   UNL     1       2.101   0.584   0.709  1.00  0.00     0.285 S 
ATOM     16  O   UNL     1       1.588   0.280   2.089  1.00  0.00    -0.199 OA
ATOM     17  O   UNL     1       1.628   1.949   0.293  1.00  0.00    -0.199 OA
BRANCH  15  18
ATOM     18  C   UNL     1       3.860   0.551   0.717  1.00  0.00     0.090 A 
ATOM     19  C   UNL     1       4.585   1.352  -0.176  1.00  0.00     0.024 A 
ATOM     20  C   UNL     1       4.546  -0.297   1.598  1.00  0.00     0.024 A 
ATOM     21  C   UNL     1       5.983   1.316  -0.178  1.00  0.00     0.027 A 
ATOM     22  C   UNL     1       5.943  -0.333   1.596  1.00  0.00     0.027 A 
ATOM     23  C   UNL     1       6.669   0.474   0.709  1.00  0.00     0.031 A 
BRANCH  23  24
ATOM     24  N   UNL     1       8.098   0.437   0.706  1.00  0.00    -0.399 N 
ATOM     25  H   UNL     1       8.647   1.034   0.048  1.00  0.00     0.156 HD
ATOM     26  H   UNL     1       8.618  -0.188   1.362  1.00  0.00     0.156 HD
ENDBRANCH  23  24
ENDBRANCH  15  18
ENDBRANCH   1  15
TORSDOF 6
