REMARK SMILES O=C(Nc1ccccc1Cl)Oc1ccc2ccccc2c1
REMARK SMILES IDX 1 1 2 2 3 3 11 5 12 6 13 7 21 8 14 9 20 10 15 11 19 12 16 13
REMARK SMILES IDX 18 14 17 15 4 16 5 17 9 18 6 19 8 20 7 21 10 22
REMARK H PARENT 3 4
ROOT
ATOM      1  O   UNL     1      -1.071   0.754   0.265  1.00  0.00    -0.224 OA
ATOM      2  C   UNL     1      -1.286   0.149  -0.822  1.00  0.00     0.417 C 
ATOM      3  N   UNL     1      -2.604  -0.315  -1.139  1.00  0.00    -0.289 N 
ATOM      4  H   UNL     1      -2.811  -0.549  -2.135  1.00  0.00     0.173 HD
ENDROOT
BRANCH   2   5
ATOM      5  O   UNL     1      -0.264  -0.010  -1.765  1.00  0.00    -0.410 OA
BRANCH   5   6
ATOM      6  C   UNL     1       1.108   0.106  -1.497  1.00  0.00     0.133 A 
ATOM      7  C   UNL     1       1.956   0.513  -2.533  1.00  0.00     0.048 A 
ATOM      8  C   UNL     1       1.655  -0.210  -0.239  1.00  0.00     0.056 A 
ATOM      9  C   UNL     1       3.332   0.637  -2.322  1.00  0.00     0.012 A 
ATOM     10  C   UNL     1       3.036  -0.090  -0.016  1.00  0.00    -0.015 A 
ATOM     11  C   UNL     1       3.881   0.342  -1.067  1.00  0.00    -0.018 A 
ATOM     12  C   UNL     1       3.588  -0.398   1.237  1.00  0.00     0.009 A 
ATOM     13  C   UNL     1       5.262   0.462  -0.843  1.00  0.00     0.009 A 
ATOM     14  C   UNL     1       4.965  -0.274   1.447  1.00  0.00     0.001 A 
ATOM     15  C   UNL     1       5.798   0.155   0.411  1.00  0.00     0.001 A 
ENDBRANCH   5   6
ENDBRANCH   2   5
BRANCH   3  16
ATOM     16  C   UNL     1      -3.697  -0.243  -0.212  1.00  0.00     0.063 A 
ATOM     17  C   UNL     1      -4.867   0.432  -0.591  1.00  0.00     0.028 A 
ATOM     18  C   UNL     1      -3.639  -0.873   1.050  1.00  0.00     0.064 A 
ATOM     19  C   UNL     1      -5.949   0.520   0.288  1.00  0.00     0.002 A 
ATOM     20  C   UNL     1      -4.729  -0.780   1.925  1.00  0.00     0.023 A 
ATOM     21  C   UNL     1      -5.878  -0.080   1.547  1.00  0.00     0.002 A 
ATOM     22  Cl  UNL     1      -2.258  -1.850   1.534  1.00  0.00    -0.082 Cl
ENDBRANCH   3  16
TORSDOF 3
