REMARK SMILES Cc1c(Cl)cccc1Nc1ncccc1C(=O)OC[C@@H](O)CO
REMARK SMILES IDX 18 1 16 2 17 3 15 4 10 5 11 6 12 7 14 8 13 9 9 10 8 12 2 13
REMARK SMILES IDX 3 14 5 15 7 16 6 17 1 18 4 19 19 20 20 21 21 22 22 24 23 25
REMARK H PARENT 9 11 21 23 23 26
ROOT
ATOM      1  O   UNL     1       1.654   0.693   0.719  1.00  0.00    -0.459 OA
ENDROOT
BRANCH   1   2
ATOM      2  C   UNL     1       1.512   1.756  -0.180  1.00  0.00     0.342 C 
ATOM      3  O   UNL     1       2.479   2.541  -0.388  1.00  0.00    -0.246 OA
BRANCH   2   4
ATOM      4  C   UNL     1       0.243   1.938  -0.924  1.00  0.00     0.102 A 
ATOM      5  C   UNL     1      -0.986   1.400  -0.471  1.00  0.00     0.144 A 
ATOM      6  N   UNL     1      -2.098   1.517  -1.249  1.00  0.00    -0.238 NA
ATOM      7  C   UNL     1      -2.081   2.146  -2.452  1.00  0.00     0.113 A 
ATOM      8  C   UNL     1       0.260   2.610  -2.159  1.00  0.00     0.021 A 
ATOM      9  C   UNL     1      -0.901   2.713  -2.924  1.00  0.00     0.021 A 
BRANCH   5  10
ATOM     10  N   UNL     1      -1.101   0.782   0.821  1.00  0.00    -0.339 N 
ATOM     11  H   UNL     1      -0.599   1.225   1.624  1.00  0.00     0.168 HD
BRANCH  10  12
ATOM     12  C   UNL     1      -2.132  -0.170   1.120  1.00  0.00     0.044 A 
ATOM     13  C   UNL     1      -2.294  -1.358   0.361  1.00  0.00    -0.009 A 
ATOM     14  C   UNL     1      -3.380  -2.216   0.654  1.00  0.00     0.046 A 
ATOM     15  C   UNL     1      -4.235  -1.926   1.722  1.00  0.00     0.021 A 
ATOM     16  C   UNL     1      -2.985   0.083   2.203  1.00  0.00     0.026 A 
ATOM     17  C   UNL     1      -4.030  -0.789   2.502  1.00  0.00     0.004 A 
ATOM     18  C   UNL     1      -1.333  -1.705  -0.751  1.00  0.00     0.048 C 
ATOM     19  Cl  UNL     1      -3.709  -3.662  -0.297  1.00  0.00    -0.084 Cl
ENDBRANCH  10  12
ENDBRANCH   5  10
ENDBRANCH   2   4
ENDBRANCH   1   2
BRANCH   1  20
ATOM     20  C   UNL     1       2.881   0.366   1.370  1.00  0.00     0.267 C 
BRANCH  20  21
ATOM     21  C   UNL     1       3.852  -0.331   0.402  1.00  0.00     0.177 C 
BRANCH  21  22
ATOM     22  O   UNL     1       5.051  -0.625   1.070  1.00  0.00    -0.387 OA
ATOM     23  H   UNL     1       5.553   0.228   1.148  1.00  0.00     0.211 HD
ENDBRANCH  21  22
BRANCH  21  24
ATOM     24  C   UNL     1       3.248  -1.633  -0.142  1.00  0.00     0.191 C 
BRANCH  24  25
ATOM     25  O   UNL     1       4.152  -2.270  -1.005  1.00  0.00    -0.394 OA
ATOM     26  H   UNL     1       4.135  -1.763  -1.858  1.00  0.00     0.210 HD
ENDBRANCH  24  25
ENDBRANCH  21  24
ENDBRANCH  20  21
ENDBRANCH   1  20
TORSDOF 9
