REMARK SMILES O=c1[nH]c(=Nc2cccc(Cl)c2)oc2cc(Cl)oc(=O)c12
REMARK SMILES IDX 5 1 4 2 3 3 2 4 13 5 21 6 14 7 19 8 15 9 18 10 16 11 1 13
REMARK SMILES IDX 20 14 17 15 6 16 7 17 12 18 8 19 10 20 9 21 11 22
REMARK H PARENT 3 12
ROOT
ATOM      1  N   UNL     1      -0.886  -1.062  -0.635  1.00  0.00    -0.197 NA
ENDROOT
BRANCH   1   2
ATOM      2  C   UNL     1       0.255  -0.547  -0.274  1.00  0.00     0.302 A 
ATOM      3  N   UNL     1       0.340   0.682   0.324  1.00  0.00    -0.275 N 
ATOM      4  C   UNL     1       1.547   1.195   0.688  1.00  0.00     0.270 A 
ATOM      5  O   UNL     1       1.359  -1.258  -0.476  1.00  0.00    -0.424 OA
ATOM      6  C   UNL     1       2.715   0.449   0.456  1.00  0.00     0.168 A 
ATOM      7  C   UNL     1       2.563  -0.813  -0.143  1.00  0.00     0.155 A 
ATOM      8  C   UNL     1       4.019   0.877   0.789  1.00  0.00     0.353 A 
ATOM      9  C   UNL     1       3.688  -1.600  -0.386  1.00  0.00     0.108 A 
ATOM     10  O   UNL     1       5.063   0.091   0.536  1.00  0.00    -0.410 OA
ATOM     11  C   UNL     1       4.944  -1.107  -0.028  1.00  0.00     0.201 A 
ATOM     12  H   UNL     1      -0.515   1.237   0.549  1.00  0.00     0.175 HD
ATOM     13  O   UNL     1       1.598   2.330   1.235  1.00  0.00    -0.268 OA
ATOM     14  O   UNL     1       4.218   1.999   1.327  1.00  0.00    -0.245 OA
ATOM     15  Cl  UNL     1       6.379  -2.069  -0.321  1.00  0.00    -0.043 Cl
ENDBRANCH   1   2
BRANCH   1  16
ATOM     16  C   UNL     1      -2.174  -0.429  -0.609  1.00  0.00     0.070 A 
ATOM     17  C   UNL     1      -2.382   0.822  -1.216  1.00  0.00     0.028 A 
ATOM     18  C   UNL     1      -3.266  -1.123  -0.073  1.00  0.00     0.049 A 
ATOM     19  C   UNL     1      -3.658   1.394  -1.230  1.00  0.00     0.004 A 
ATOM     20  C   UNL     1      -4.543  -0.550  -0.087  1.00  0.00     0.043 A 
ATOM     21  C   UNL     1      -4.737   0.711  -0.661  1.00  0.00     0.020 A 
ATOM     22  Cl  UNL     1      -5.902  -1.416   0.607  1.00  0.00    -0.084 Cl
ENDBRANCH   1  16
TORSDOF 2
