REMARK SMILES CCCNc1cc(=S)[nH]c(N)n1
REMARK SMILES IDX 4 1 3 3 2 4 1 5 5 6 6 7 12 8 7 9 10 10 9 11 8 12 11 14
REMARK H PARENT 4 2 9 13 11 15 11 16
ROOT
ATOM      1  N   UNL     1      -0.780   0.622   0.126  1.00  0.00    -0.370 N 
ATOM      2  H   UNL     1      -1.266   1.502  -0.164  1.00  0.00     0.162 HD
ENDROOT
BRANCH   1   3
ATOM      3  C   UNL     1      -1.543  -0.462   0.747  1.00  0.00     0.114 C 
BRANCH   3   4
ATOM      4  C   UNL     1      -3.042  -0.138   0.808  1.00  0.00     0.018 C 
ATOM      5  C   UNL     1      -3.692  -0.162  -0.575  1.00  0.00     0.006 C 
ENDBRANCH   3   4
ENDBRANCH   1   3
BRANCH   1   6
ATOM      6  C   UNL     1       0.636   0.520  -0.079  1.00  0.00     0.132 A 
ATOM      7  C   UNL     1       1.339   1.572  -0.672  1.00  0.00     0.085 A 
ATOM      8  N   UNL     1       1.306  -0.601   0.301  1.00  0.00    -0.198 NA
ATOM      9  C   UNL     1       2.718   1.438  -0.856  1.00  0.00     0.109 A 
ATOM     10  C   UNL     1       2.647  -0.720   0.117  1.00  0.00     0.200 A 
ATOM     11  N   UNL     1       3.348   0.297  -0.459  1.00  0.00    -0.317 N 
ATOM     12  S   UNL     1       3.572   2.652  -1.548  1.00  0.00    -0.060 S 
ATOM     13  H   UNL     1       4.379   0.196  -0.597  1.00  0.00     0.170 HD
BRANCH  10  14
ATOM     14  N   UNL     1       3.315  -1.913   0.530  1.00  0.00    -0.369 N 
ATOM     15  H   UNL     1       2.778  -2.691   0.971  1.00  0.00     0.159 HD
ATOM     16  H   UNL     1       4.345  -2.022   0.396  1.00  0.00     0.159 HD
ENDBRANCH  10  14
ENDBRANCH   1   6
TORSDOF 4
