REMARK SMILES Cc1cc(N2CC[NH+](C)CC2)n2nc(-c3ccc(Cl)cc3)nc2n1
REMARK SMILES IDX 4 1 3 2 12 3 2 4 13 5 23 6 1 7 24 8 14 9 22 10 5 11 7 12
REMARK SMILES IDX 8 13 6 14 10 15 11 16 9 17 15 19 16 20 21 21 17 22 20 23
REMARK SMILES IDX 18 24 19 25
REMARK H PARENT 8 18
ROOT
ATOM      1  C   UNL     1      -1.118   1.640  -1.106  1.00  0.00     0.136 A 
ATOM      2  C   UNL     1      -0.999   1.793  -2.499  1.00  0.00     0.070 A 
ATOM      3  N   UNL     1      -0.396   2.481  -0.322  1.00  0.00    -0.180 N 
ATOM      4  C   UNL     1      -0.149   2.803  -3.006  1.00  0.00     0.045 A 
ATOM      5  N   UNL     1      -0.372   2.555   0.993  1.00  0.00    -0.143 NA
ATOM      6  C   UNL     1       0.407   3.423  -0.815  1.00  0.00     0.254 A 
ATOM      7  C   UNL     1       0.030   2.965  -4.482  1.00  0.00     0.067 C 
ATOM      8  N   UNL     1       0.554   3.604  -2.150  1.00  0.00    -0.216 NA
ATOM      9  C   UNL     1       0.488   3.570   1.265  1.00  0.00     0.183 A 
ATOM     10  N   UNL     1       1.003   4.149   0.145  1.00  0.00    -0.189 NA
ENDROOT
BRANCH   1  11
ATOM     11  N   UNL     1      -1.973   0.638  -0.529  1.00  0.00    -0.345 N 
ATOM     12  C   UNL     1      -2.395  -0.796   1.420  1.00  0.00     0.283 C 
ATOM     13  N   UNL     1      -3.739  -1.109   0.882  1.00  0.00    -0.334 N 
ATOM     14  C   UNL     1      -1.396  -0.403   0.323  1.00  0.00     0.179 C 
ATOM     15  C   UNL     1      -4.273  -0.000   0.057  1.00  0.00     0.283 C 
ATOM     16  C   UNL     1      -3.315   0.418  -1.069  1.00  0.00     0.179 C 
ATOM     17  C   UNL     1      -3.768  -2.400   0.167  1.00  0.00     0.332 C 
ATOM     18  H   UNL     1      -4.380  -1.212   1.705  1.00  0.00     0.347 HD
ENDBRANCH   1  11
BRANCH   9  19
ATOM     19  C   UNL     1       0.827   4.003   2.637  1.00  0.00     0.021 A 
ATOM     20  C   UNL     1       0.269   3.346   3.750  1.00  0.00     0.013 A 
ATOM     21  C   UNL     1       1.712   5.075   2.849  1.00  0.00     0.013 A 
ATOM     22  C   UNL     1       0.592   3.755   5.047  1.00  0.00     0.021 A 
ATOM     23  C   UNL     1       2.032   5.480   4.149  1.00  0.00     0.021 A 
ATOM     24  C   UNL     1       1.473   4.822   5.248  1.00  0.00     0.041 A 
ATOM     25  Cl  UNL     1       1.879   5.332   6.877  1.00  0.00    -0.084 Cl
ENDBRANCH   9  19
TORSDOF 2
