REMARK SMILES O=C(Cn1ccc(=O)nc1O)Nc1ccc(C(=O)[O-])c(O)c1
REMARK SMILES IDX 2 1 1 2 12 3 3 5 4 6 10 7 9 8 7 9 5 10 6 11 8 12 11 13 13 15
REMARK SMILES IDX 14 16 22 17 15 18 20 19 16 20 21 21 17 23 18 24 19 25
REMARK H PARENT 12 4 11 14 21 22
ROOT
ATOM      1  C   UNL     1      -0.917  -0.959  -0.780  1.00  0.00     0.244 C 
ATOM      2  O   UNL     1      -0.580  -2.095  -0.351  1.00  0.00    -0.273 OA
ATOM      3  N   UNL     1      -0.002   0.146  -0.721  1.00  0.00    -0.324 N 
ATOM      4  H   UNL     1      -0.389   1.108  -0.848  1.00  0.00     0.170 HD
ENDROOT
BRANCH   1   5
ATOM      5  C   UNL     1      -2.308  -0.752  -1.306  1.00  0.00     0.227 C 
BRANCH   5   6
ATOM      6  N   UNL     1      -3.102   0.056  -0.365  1.00  0.00    -0.293 N 
ATOM      7  C   UNL     1      -3.658  -0.482   0.775  1.00  0.00     0.297 A 
ATOM      8  N   UNL     1      -4.370   0.310   1.620  1.00  0.00    -0.157 NA
ATOM      9  C   UNL     1      -4.548   1.631   1.378  1.00  0.00     0.275 A 
ATOM     10  C   UNL     1      -3.264   1.391  -0.625  1.00  0.00     0.097 A 
ATOM     11  C   UNL     1      -3.992   2.203   0.240  1.00  0.00     0.092 A 
ATOM     12  O   UNL     1      -5.213   2.333   2.183  1.00  0.00    -0.267 OA
BRANCH   7  13
ATOM     13  O   UNL     1      -3.519  -1.831   1.107  1.00  0.00    -0.480 OA
ATOM     14  H   UNL     1      -3.005  -2.500   0.551  1.00  0.00     0.296 HD
ENDBRANCH   7  13
ENDBRANCH   5   6
ENDBRANCH   1   5
BRANCH   3  15
ATOM     15  C   UNL     1       1.389   0.024  -0.376  1.00  0.00     0.044 A 
ATOM     16  C   UNL     1       2.009   1.050   0.344  1.00  0.00     0.027 A 
ATOM     17  C   UNL     1       2.152  -1.080  -0.788  1.00  0.00     0.073 A 
ATOM     18  C   UNL     1       3.365   0.971   0.666  1.00  0.00     0.016 A 
ATOM     19  C   UNL     1       3.509  -1.181  -0.455  1.00  0.00     0.126 A 
ATOM     20  C   UNL     1       4.137  -0.131   0.261  1.00  0.00     0.039 A 
BRANCH  19  21
ATOM     21  O   UNL     1       4.182  -2.347  -0.828  1.00  0.00    -0.507 OA
ATOM     22  H   UNL     1       5.103  -2.592  -0.493  1.00  0.00     0.293 HD
ENDBRANCH  19  21
BRANCH  20  23
ATOM     23  C   UNL     1       5.585  -0.121   0.567  1.00  0.00     0.075 C 
ATOM     24  O   UNL     1       6.418  -0.629  -0.229  1.00  0.00    -0.545 OA
ATOM     25  O   UNL     1       6.049   0.514   1.713  1.00  0.00    -0.545 OA
ENDBRANCH  20  23
ENDBRANCH   3  15
TORSDOF 6
