REMARK SMILES C=C(O)c1c(OC(C)=O)c(C)c(OC(C)=O)c2c1O[C@H]1CC(=O)[C@@H](C(C)=O)C(=O)[C@]21C
REMARK SMILES IDX 4 1 5 2 10 3 11 4 12 5 17 6 18 7 19 8 20 9 21 10 22 11 23 12
REMARK SMILES IDX 24 13 28 14 29 15 30 16 31 17 2 18 1 19 3 20 6 22 7 23 8 24
REMARK SMILES IDX 9 25 13 26 14 27 15 28 16 29 25 30 26 31 27 32
REMARK H PARENT 3 21
ROOT
ATOM      1  C   UNL     1       1.805   1.535   0.433  1.00  0.00     0.101 A 
ATOM      2  C   UNL     1       2.633   0.721  -0.386  1.00  0.00     0.152 A 
ATOM      3  C   UNL     1       2.076  -0.369  -1.105  1.00  0.00     0.036 A 
ATOM      4  C   UNL     1       2.946  -1.144  -2.062  1.00  0.00     0.052 C 
ATOM      5  C   UNL     1       0.713  -0.721  -0.915  1.00  0.00     0.145 A 
ATOM      6  C   UNL     1      -0.057   0.044  -0.032  1.00  0.00     0.055 A 
ATOM      7  C   UNL     1       0.468   1.165   0.582  1.00  0.00     0.142 A 
ATOM      8  O   UNL     1      -0.502   1.849   1.305  1.00  0.00    -0.487 OA
ATOM      9  C   UNL     1      -1.612   0.972   1.412  1.00  0.00     0.198 C 
ATOM     10  C   UNL     1      -2.991   1.572   1.647  1.00  0.00     0.123 C 
ATOM     11  C   UNL     1      -4.022   0.448   1.601  1.00  0.00     0.154 C 
ATOM     12  O   UNL     1      -5.175   0.711   1.911  1.00  0.00    -0.298 OA
ATOM     13  C   UNL     1      -3.646  -1.012   1.266  1.00  0.00     0.190 C 
ATOM     14  C   UNL     1      -2.336  -1.151   0.486  1.00  0.00     0.165 C 
ATOM     15  O   UNL     1      -1.930  -2.257   0.165  1.00  0.00    -0.297 OA
ATOM     16  C   UNL     1      -1.553   0.095   0.145  1.00  0.00     0.097 C 
ATOM     17  C   UNL     1      -2.146   0.768  -1.116  1.00  0.00     0.029 C 
ENDROOT
BRANCH   1  18
ATOM     18  C   UNL     1       2.290   2.776   1.082  1.00  0.00     0.123 C 
ATOM     19  C   UNL     1       2.961   3.698   0.392  1.00  0.00     0.059 C 
BRANCH  18  20
ATOM     20  O   UNL     1       2.026   3.006   2.431  1.00  0.00    -0.508 OA
ATOM     21  H   UNL     1       1.548   2.318   3.001  1.00  0.00     0.293 HD
ENDBRANCH  18  20
ENDBRANCH   1  18
BRANCH   2  22
ATOM     22  O   UNL     1       4.004   0.987  -0.520  1.00  0.00    -0.425 OA
BRANCH  22  23
ATOM     23  C   UNL     1       4.885   1.088   0.562  1.00  0.00     0.308 C 
ATOM     24  C   UNL     1       6.289   1.526   0.325  1.00  0.00     0.139 C 
ATOM     25  O   UNL     1       4.524   0.750   1.722  1.00  0.00    -0.252 OA
ENDBRANCH  22  23
ENDBRANCH   2  22
BRANCH   5  26
ATOM     26  O   UNL     1       0.112  -1.769  -1.622  1.00  0.00    -0.426 OA
BRANCH  26  27
ATOM     27  C   UNL     1       0.521  -3.103  -1.521  1.00  0.00     0.308 C 
ATOM     28  C   UNL     1      -0.100  -4.125  -2.409  1.00  0.00     0.139 C 
ATOM     29  O   UNL     1       1.350  -3.458  -0.640  1.00  0.00    -0.252 OA
ENDBRANCH  26  27
ENDBRANCH   5  26
BRANCH  13  30
ATOM     30  C   UNL     1      -4.758  -1.746   0.541  1.00  0.00     0.147 C 
ATOM     31  C   UNL     1      -5.462  -1.167  -0.652  1.00  0.00     0.089 C 
ATOM     32  O   UNL     1      -5.051  -2.878   0.897  1.00  0.00    -0.299 OA
ENDBRANCH  13  30
TORSDOF 7
