REMARK SMILES CC(C)[NH2+]C[C@H]1CCc2cc(CO)c([N+](=O)[O-])cc2N1
REMARK SMILES IDX 6 1 7 2 20 3 8 4 19 5 9 6 18 7 10 8 14 9 11 10 5 12 4 13
REMARK SMILES IDX 2 16 1 17 3 18 15 19 16 20 17 21 12 22 13 23
REMARK H PARENT 20 11 4 14 4 15 13 24
ROOT
ATOM      1  C   UNL     1      -0.263   0.545  -2.319  1.00  0.00     0.134 C 
ATOM      2  C   UNL     1      -0.527   1.557  -1.182  1.00  0.00     0.035 C 
ATOM      3  N   UNL     1       1.177   0.411  -2.542  1.00  0.00    -0.376 N 
ATOM      4  C   UNL     1       0.272   1.237   0.089  1.00  0.00     0.040 C 
ATOM      5  C   UNL     1       2.133   0.535  -1.478  1.00  0.00     0.045 A 
ATOM      6  C   UNL     1       1.726   0.962  -0.203  1.00  0.00    -0.024 A 
ATOM      7  C   UNL     1       3.480   0.238  -1.712  1.00  0.00     0.112 A 
ATOM      8  C   UNL     1       2.671   1.071   0.825  1.00  0.00     0.019 A 
ATOM      9  C   UNL     1       4.434   0.342  -0.688  1.00  0.00     0.276 A 
ATOM     10  C   UNL     1       4.034   0.807   0.592  1.00  0.00     0.056 A 
ATOM     11  H   UNL     1       1.501   0.107  -3.489  1.00  0.00     0.161 HD
ENDROOT
BRANCH   1  12
ATOM     12  C   UNL     1      -0.881  -0.854  -2.061  1.00  0.00     0.285 C 
BRANCH  12  13
ATOM     13  N   UNL     1      -2.339  -0.892  -2.311  1.00  0.00    -0.343 N 
ATOM     14  H   UNL     1      -2.769   0.000  -1.978  1.00  0.00     0.346 HD
ATOM     15  H   UNL     1      -2.758  -1.653  -1.725  1.00  0.00     0.346 HD
BRANCH  13  16
ATOM     16  C   UNL     1      -2.673  -1.125  -3.738  1.00  0.00     0.176 C 
ATOM     17  C   UNL     1      -4.058  -0.550  -4.069  1.00  0.00     0.075 C 
ATOM     18  C   UNL     1      -2.646  -2.626  -4.085  1.00  0.00     0.075 C 
ENDBRANCH  13  16
ENDBRANCH  12  13
ENDBRANCH   1  12
BRANCH   9  19
ATOM     19  N   UNL     1       5.794  -0.039  -0.967  1.00  0.00     0.063 N 
ATOM     20  O   UNL     1       6.449  -0.703  -0.137  1.00  0.00    -0.258 OA
ATOM     21  O   UNL     1       6.307   0.128  -2.233  1.00  0.00    -0.258 OA
ENDBRANCH   9  19
BRANCH  10  22
ATOM     22  C   UNL     1       5.039   0.989   1.712  1.00  0.00     0.199 C 
BRANCH  22  23
ATOM     23  O   UNL     1       4.622   1.971   2.626  1.00  0.00    -0.391 OA
ATOM     24  H   UNL     1       4.189   1.498   3.384  1.00  0.00     0.211 HD
ENDBRANCH  22  23
ENDBRANCH  10  22
TORSDOF 6
