REMARK SMILES O=C1C[C@@H](c2ccc(O)cc2)Oc2cc(O)cc(O)c21
REMARK SMILES IDX 1 1 2 2 3 3 4 4 12 5 13 6 14 7 15 8 17 9 18 10 20 11 5 12
REMARK SMILES IDX 6 13 11 14 7 15 10 16 8 17 9 18 19 20 16 22
REMARK H PARENT 9 19 19 21 16 23
ROOT
ATOM      1  O   UNL     1       1.940  -1.859  -1.688  1.00  0.00    -0.294 OA
ATOM      2  C   UNL     1       1.156  -1.355  -0.837  1.00  0.00     0.174 C 
ATOM      3  C   UNL     1       0.462  -2.264   0.140  1.00  0.00     0.131 C 
ATOM      4  C   UNL     1       0.071  -1.548   1.453  1.00  0.00     0.211 C 
ATOM      5  O   UNL     1      -0.412  -0.222   1.219  1.00  0.00    -0.484 OA
ATOM      6  C   UNL     1       0.085   0.618   0.214  1.00  0.00     0.138 A 
ATOM      7  C   UNL     1      -0.226   1.979   0.255  1.00  0.00     0.093 A 
ATOM      8  C   UNL     1       0.264   2.846  -0.725  1.00  0.00     0.123 A 
ATOM      9  C   UNL     1       1.055   2.344  -1.765  1.00  0.00     0.093 A 
ATOM     10  C   UNL     1       1.365   0.976  -1.825  1.00  0.00     0.133 A 
ATOM     11  C   UNL     1       0.877   0.101  -0.828  1.00  0.00     0.102 A 
ENDROOT
BRANCH   4  12
ATOM     12  C   UNL     1       1.188  -1.514   2.483  1.00  0.00    -0.007 A 
ATOM     13  C   UNL     1       0.920  -1.922   3.808  1.00  0.00     0.011 A 
ATOM     14  C   UNL     1       2.465  -1.001   2.176  1.00  0.00     0.011 A 
ATOM     15  C   UNL     1       1.911  -1.845   4.791  1.00  0.00     0.046 A 
ATOM     16  C   UNL     1       3.458  -0.941   3.158  1.00  0.00     0.046 A 
ATOM     17  C   UNL     1       3.184  -1.360   4.468  1.00  0.00     0.115 A 
BRANCH  17  18
ATOM     18  O   UNL     1       4.177  -1.279   5.441  1.00  0.00    -0.508 OA
ATOM     19  H   UNL     1       3.994  -1.525   6.410  1.00  0.00     0.293 HD
ENDBRANCH  17  18
ENDBRANCH   4  12
BRANCH  10  20
ATOM     20  O   UNL     1       2.146   0.494  -2.874  1.00  0.00    -0.507 OA
ATOM     21  H   UNL     1       2.516   1.112  -3.590  1.00  0.00     0.293 HD
ENDBRANCH  10  20
BRANCH   8  22
ATOM     22  O   UNL     1      -0.043   4.204  -0.656  1.00  0.00    -0.508 OA
ATOM     23  H   UNL     1       0.290   4.860  -1.351  1.00  0.00     0.293 HD
ENDBRANCH   8  22
TORSDOF 4
