REMARK SMILES CCCC[NH2+]C[C@H]1CCCO1
REMARK SMILES IDX 4 1 5 2 6 5 7 6 8 7 11 8 9 9 10 10 3 11 2 12 1 13
REMARK H PARENT 5 3 5 4
ROOT
ATOM      1  C   UNL     1      -1.297  -0.747   0.422  1.00  0.00     0.260 C 
ENDROOT
BRANCH   1   2
ATOM      2  N   UNL     1       0.096  -0.276   0.403  1.00  0.00    -0.344 N 
ATOM      3  H   UNL     1       0.351  -0.018  -0.578  1.00  0.00     0.346 HD
ATOM      4  H   UNL     1       0.176   0.569   1.016  1.00  0.00     0.346 HD
BRANCH   2   5
ATOM      5  C   UNL     1       1.004  -1.329   0.892  1.00  0.00     0.292 C 
BRANCH   5   6
ATOM      6  C   UNL     1       2.476  -0.867   0.931  1.00  0.00     0.173 C 
ATOM      7  C   UNL     1       3.063  -0.612  -0.458  1.00  0.00     0.040 C 
ATOM      8  O   UNL     1       2.596   0.301   1.717  1.00  0.00    -0.372 OA
ATOM      9  C   UNL     1       3.270   0.871  -0.488  1.00  0.00     0.031 C 
ATOM     10  C   UNL     1       3.346   1.234   0.977  1.00  0.00     0.161 C 
ENDBRANCH   5   6
ENDBRANCH   2   5
ENDBRANCH   1   2
BRANCH   1  11
ATOM     11  C   UNL     1      -2.248   0.343  -0.092  1.00  0.00     0.061 C 
BRANCH  11  12
ATOM     12  C   UNL     1      -3.703  -0.141  -0.075  1.00  0.00     0.002 C 
ATOM     13  C   UNL     1      -4.650   0.941  -0.585  1.00  0.00     0.004 C 
ENDBRANCH  11  12
ENDBRANCH   1  11
TORSDOF 5
