REMARK SMILES C=C(O)c1c(OC(C)=O)c(C)c(OC(C)=O)c2c1O[C@H]1CC(=O)[C@H](C(C)=O)C(=O)[C@@]21C
REMARK SMILES IDX 4 1 5 2 10 3 11 4 12 5 17 6 18 7 19 8 20 9 21 10 22 11 23 12
REMARK SMILES IDX 24 13 28 14 29 15 30 16 31 17 2 18 1 19 3 20 6 22 7 23 8 24
REMARK SMILES IDX 9 25 13 26 14 27 15 28 16 29 25 30 26 31 27 32
REMARK H PARENT 3 21
ROOT
ATOM      1  C   UNL     1      -1.913  -1.048  -0.761  1.00  0.00     0.101 A 
ATOM      2  C   UNL     1      -2.675  -0.160   0.036  1.00  0.00     0.152 A 
ATOM      3  C   UNL     1      -2.027   0.763   0.895  1.00  0.00     0.036 A 
ATOM      4  C   UNL     1      -2.861   1.620   1.816  1.00  0.00     0.052 C 
ATOM      5  C   UNL     1      -0.607   0.836   0.916  1.00  0.00     0.145 A 
ATOM      6  C   UNL     1       0.126  -0.044   0.097  1.00  0.00     0.055 A 
ATOM      7  C   UNL     1      -0.519  -0.979  -0.669  1.00  0.00     0.142 A 
ATOM      8  O   UNL     1       0.368  -1.814  -1.312  1.00  0.00    -0.487 OA
ATOM      9  C   UNL     1       1.711  -1.402  -1.090  1.00  0.00     0.198 C 
ATOM     10  C   UNL     1       2.271  -0.925  -2.436  1.00  0.00     0.123 C 
ATOM     11  C   UNL     1       3.562  -0.199  -2.246  1.00  0.00     0.154 C 
ATOM     12  O   UNL     1       4.511  -0.444  -2.977  1.00  0.00    -0.298 OA
ATOM     13  C   UNL     1       3.650   0.917  -1.241  1.00  0.00     0.190 C 
ATOM     14  C   UNL     1       2.433   0.970  -0.341  1.00  0.00     0.165 C 
ATOM     15  O   UNL     1       2.155   2.043   0.170  1.00  0.00    -0.297 OA
ATOM     16  C   UNL     1       1.624  -0.281   0.019  1.00  0.00     0.097 C 
ATOM     17  C   UNL     1       2.103  -0.831   1.376  1.00  0.00     0.029 C 
ENDROOT
BRANCH   1  18
ATOM     18  C   UNL     1      -2.557  -1.982  -1.716  1.00  0.00     0.123 C 
ATOM     19  C   UNL     1      -2.231  -3.274  -1.744  1.00  0.00     0.059 C 
BRANCH  18  20
ATOM     20  O   UNL     1      -3.529  -1.516  -2.600  1.00  0.00    -0.508 OA
ATOM     21  H   UNL     1      -3.780  -0.535  -2.640  1.00  0.00     0.293 HD
ENDBRANCH  18  20
ENDBRANCH   1  18
BRANCH   2  22
ATOM     22  O   UNL     1      -4.077  -0.183   0.000  1.00  0.00    -0.425 OA
BRANCH  22  23
ATOM     23  C   UNL     1      -4.840  -1.318   0.300  1.00  0.00     0.308 C 
ATOM     24  C   UNL     1      -6.315  -1.287   0.090  1.00  0.00     0.139 C 
ATOM     25  O   UNL     1      -4.303  -2.342   0.804  1.00  0.00    -0.252 OA
ENDBRANCH  22  23
ENDBRANCH   2  22
BRANCH   5  26
ATOM     26  O   UNL     1       0.069   1.710   1.777  1.00  0.00    -0.426 OA
BRANCH  26  27
ATOM     27  C   UNL     1      -0.108   3.099   1.770  1.00  0.00     0.308 C 
ATOM     28  C   UNL     1       0.528   3.923   2.836  1.00  0.00     0.139 C 
ATOM     29  O   UNL     1      -0.728   3.665   0.829  1.00  0.00    -0.252 OA
ENDBRANCH  26  27
ENDBRANCH   5  26
BRANCH  13  30
ATOM     30  C   UNL     1       4.917   0.860  -0.412  1.00  0.00     0.147 C 
ATOM     31  C   UNL     1       5.532  -0.433   0.049  1.00  0.00     0.089 C 
ATOM     32  O   UNL     1       5.446   1.908  -0.072  1.00  0.00    -0.299 OA
ENDBRANCH  13  30
TORSDOF 7
