REMARK SMILES COc1cccc(/C=C2\CCc3ccccc3C2=O)c1
REMARK SMILES IDX 3 1 4 2 5 3 6 4 7 5 20 6 2 7 1 8 8 9 9 10 10 11 18 12 11 13
REMARK SMILES IDX 17 14 12 15 16 16 13 17 15 18 14 19 19 20
REMARK H PARENT
ROOT
ATOM      1  C   UNL     1      -2.740   1.590   3.621  1.00  0.00     0.119 A 
ATOM      2  C   UNL     1      -2.469   0.754   4.721  1.00  0.00     0.046 A 
ATOM      3  C   UNL     1      -1.160   0.343   4.986  1.00  0.00     0.004 A 
ATOM      4  C   UNL     1      -0.114   0.752   4.156  1.00  0.00     0.008 A 
ATOM      5  C   UNL     1      -0.376   1.561   3.040  1.00  0.00    -0.022 A 
ATOM      6  C   UNL     1      -1.686   1.996   2.793  1.00  0.00     0.054 A 
ENDROOT
BRANCH   1   7
ATOM      7  O   UNL     1      -4.035   2.040   3.320  1.00  0.00    -0.497 OA
ATOM      8  C   UNL     1      -5.197   1.708   4.073  1.00  0.00     0.278 C 
ENDBRANCH   1   7
BRANCH   5   9
ATOM      9  C   UNL     1       0.723   2.043   2.183  1.00  0.00     0.016 C 
BRANCH   9  10
ATOM     10  C   UNL     1       1.522   1.245   1.442  1.00  0.00     0.001 C 
ATOM     11  C   UNL     1       1.277  -0.244   1.291  1.00  0.00     0.044 C 
ATOM     12  C   UNL     1       2.590   1.839   0.597  1.00  0.00     0.189 C 
ATOM     13  C   UNL     1       2.597  -1.013   1.163  1.00  0.00     0.041 C 
ATOM     14  C   UNL     1       3.498   0.949  -0.164  1.00  0.00     0.025 A 
ATOM     15  C   UNL     1       3.472  -0.442   0.074  1.00  0.00    -0.037 A 
ATOM     16  C   UNL     1       4.378   1.470  -1.128  1.00  0.00     0.012 A 
ATOM     17  C   UNL     1       4.341  -1.284  -0.638  1.00  0.00     0.004 A 
ATOM     18  C   UNL     1       5.225   0.619  -1.842  1.00  0.00     0.001 A 
ATOM     19  C   UNL     1       5.207  -0.755  -1.598  1.00  0.00     0.000 A 
ATOM     20  O   UNL     1       2.728   3.091   0.522  1.00  0.00    -0.289 OA
ENDBRANCH   9  10
ENDBRANCH   5   9
TORSDOF 3
