REMARK SMILES C[C@H](OC(=O)Nc1cccc(Cl)c1)C(=O)[O-]
REMARK SMILES IDX 3 1 2 2 1 3 14 4 15 5 16 6 4 7 6 8 5 9 7 11 8 12 13 13 9 14
REMARK SMILES IDX 11 15 10 16 12 17
REMARK H PARENT 6 10
ROOT
ATOM      1  O   UNL     1      -1.971  -0.030  -0.666  1.00  0.00    -0.440 OA
ENDROOT
BRANCH   1   2
ATOM      2  C   UNL     1      -3.054  -0.902  -0.338  1.00  0.00     0.221 C 
ATOM      3  C   UNL     1      -3.593  -0.582   1.058  1.00  0.00     0.060 C 
BRANCH   2   4
ATOM      4  C   UNL     1      -4.142  -0.742  -1.355  1.00  0.00     0.082 C 
ATOM      5  O   UNL     1      -4.482   0.406  -1.749  1.00  0.00    -0.546 OA
ATOM      6  O   UNL     1      -4.814  -1.859  -1.836  1.00  0.00    -0.546 OA
ENDBRANCH   2   4
ENDBRANCH   1   2
BRANCH   1   7
ATOM      7  C   UNL     1      -0.682  -0.162  -0.137  1.00  0.00     0.412 C 
ATOM      8  N   UNL     1       0.314   0.809  -0.483  1.00  0.00    -0.291 N 
ATOM      9  O   UNL     1      -0.411  -1.105   0.656  1.00  0.00    -0.224 OA
ATOM     10  H   UNL     1      -0.018   1.697  -0.923  1.00  0.00     0.173 HD
BRANCH   8  11
ATOM     11  C   UNL     1       1.709   0.692  -0.155  1.00  0.00     0.045 A 
ATOM     12  C   UNL     1       2.451   1.852   0.117  1.00  0.00     0.026 A 
ATOM     13  C   UNL     1       2.364  -0.555  -0.161  1.00  0.00     0.046 A 
ATOM     14  C   UNL     1       3.814   1.766   0.417  1.00  0.00     0.004 A 
ATOM     15  C   UNL     1       3.728  -0.637   0.139  1.00  0.00     0.043 A 
ATOM     16  C   UNL     1       4.452   0.523   0.432  1.00  0.00     0.020 A 
ATOM     17  Cl  UNL     1       4.536  -2.194   0.134  1.00  0.00    -0.084 Cl
ENDBRANCH   8  11
ENDBRANCH   1   7
TORSDOF 4
