REMARK SMILES C[NH+]1CCN(c2nc(N)c(Br)c(Cl)n2)CC1
REMARK SMILES IDX 6 1 7 2 14 3 8 4 12 5 10 6 13 7 11 8 5 9 2 10 3 11 16 12
REMARK SMILES IDX 4 13 15 14 1 15 9 17
REMARK H PARENT 2 16 9 18 9 19
ROOT
ATOM      1  C   UNL     1      -1.383   0.257  -0.496  1.00  0.00     0.229 A 
ATOM      2  N   UNL     1      -2.311  -0.058   0.446  1.00  0.00    -0.195 NA
ATOM      3  N   UNL     1      -1.798   0.745  -1.696  1.00  0.00    -0.200 NA
ATOM      4  C   UNL     1      -3.643   0.099   0.224  1.00  0.00     0.144 A 
ATOM      5  C   UNL     1      -3.113   0.924  -1.975  1.00  0.00     0.151 A 
ATOM      6  C   UNL     1      -4.083   0.603  -1.014  1.00  0.00     0.097 A 
ATOM      7  Cl  UNL     1      -3.556   1.560  -3.552  1.00  0.00    -0.061 Cl
ATOM      8  Br  UNL     1      -5.952   0.850  -1.395  1.00  0.00    -0.043 Br
ENDROOT
BRANCH   1   9
ATOM      9  N   UNL     1       0.026   0.077  -0.226  1.00  0.00    -0.329 N 
ATOM     10  N   UNL     1       2.829  -0.096   0.382  1.00  0.00    -0.334 N 
ATOM     11  C   UNL     1       2.358   0.709  -0.765  1.00  0.00     0.283 C 
ATOM     12  C   UNL     1       1.823  -0.128   1.464  1.00  0.00     0.283 C 
ATOM     13  C   UNL     1       1.004   0.233  -1.311  1.00  0.00     0.181 C 
ATOM     14  C   UNL     1       0.452  -0.630   0.990  1.00  0.00     0.181 C 
ATOM     15  C   UNL     1       3.264  -1.447  -0.021  1.00  0.00     0.332 C 
ATOM     16  H   UNL     1       3.676   0.387   0.766  1.00  0.00     0.347 HD
ENDBRANCH   1   9
BRANCH   4  17
ATOM     17  N   UNL     1      -4.562  -0.254   1.261  1.00  0.00    -0.383 N 
ATOM     18  H   UNL     1      -5.595  -0.156   1.150  1.00  0.00     0.158 HD
ATOM     19  H   UNL     1      -4.202  -0.626   2.168  1.00  0.00     0.158 HD
ENDBRANCH   4  17
TORSDOF 2
