REMARK SMILES CC[C@@]1(O)C(=O)OCc2c1cc1n(c2=O)Cc2cc3ccccc3nc2-1
REMARK SMILES IDX 3 1 5 2 6 3 7 4 8 5 9 6 10 7 11 8 12 9 13 10 14 11 15 12
REMARK SMILES IDX 16 13 17 14 18 15 19 16 20 17 21 18 22 19 23 20 24 21 25 22
REMARK SMILES IDX 26 23 2 24 1 25 4 26
REMARK H PARENT 4 27
ROOT
ATOM      1  C   UNL     1      -3.460  -0.324   0.880  1.00  0.00     0.187 C 
ATOM      2  C   UNL     1      -4.418  -1.498   0.917  1.00  0.00     0.343 C 
ATOM      3  O   UNL     1      -5.297  -1.578   1.817  1.00  0.00    -0.248 OA
ATOM      4  O   UNL     1      -4.359  -2.493  -0.062  1.00  0.00    -0.458 OA
ATOM      5  C   UNL     1      -3.516  -2.380  -1.205  1.00  0.00     0.275 C 
ATOM      6  C   UNL     1      -2.199  -1.750  -0.830  1.00  0.00     0.062 A 
ATOM      7  C   UNL     1      -2.169  -0.761   0.190  1.00  0.00     0.009 A 
ATOM      8  C   UNL     1      -0.940  -0.150   0.517  1.00  0.00     0.036 A 
ATOM      9  C   UNL     1       0.199  -0.539  -0.178  1.00  0.00     0.071 A 
ATOM     10  N   UNL     1       0.151  -1.471  -1.155  1.00  0.00    -0.302 N 
ATOM     11  C   UNL     1      -1.008  -2.085  -1.512  1.00  0.00     0.258 A 
ATOM     12  O   UNL     1      -1.012  -2.937  -2.442  1.00  0.00    -0.269 OA
ATOM     13  C   UNL     1       1.484  -1.679  -1.739  1.00  0.00     0.164 C 
ATOM     14  C   UNL     1       2.328  -0.720  -0.952  1.00  0.00     0.000 A 
ATOM     15  C   UNL     1       3.691  -0.449  -1.043  1.00  0.00     0.018 A 
ATOM     16  C   UNL     1       4.232   0.517  -0.172  1.00  0.00     0.001 A 
ATOM     17  C   UNL     1       5.596   0.839  -0.209  1.00  0.00     0.010 A 
ATOM     18  C   UNL     1       6.112   1.802   0.665  1.00  0.00     0.001 A 
ATOM     19  C   UNL     1       5.272   2.448   1.579  1.00  0.00     0.002 A 
ATOM     20  C   UNL     1       3.910   2.139   1.628  1.00  0.00     0.029 A 
ATOM     21  C   UNL     1       3.378   1.178   0.761  1.00  0.00     0.071 A 
ATOM     22  N   UNL     1       2.046   0.877   0.811  1.00  0.00    -0.246 NA
ATOM     23  C   UNL     1       1.549  -0.057  -0.037  1.00  0.00     0.092 A 
ENDROOT
BRANCH   1  24
ATOM     24  C   UNL     1      -4.128   0.838   0.092  1.00  0.00     0.049 C 
ATOM     25  C   UNL     1      -3.297   2.123   0.066  1.00  0.00     0.008 C 
ENDBRANCH   1  24
BRANCH   1  26
ATOM     26  O   UNL     1      -3.165   0.071   2.203  1.00  0.00    -0.374 OA
ATOM     27  H   UNL     1      -3.982   0.471   2.600  1.00  0.00     0.212 HD
ENDBRANCH   1  26
TORSDOF 2
