REMARK SMILES CCOP(=O)(OCC)/C(C#N)=C/c1ccc([N+](=O)[O-])cc1
REMARK SMILES IDX 9 1 4 2 5 3 3 4 2 5 1 6 6 7 7 8 8 9 10 10 11 11 12 12 13 13
REMARK SMILES IDX 14 14 21 15 15 16 20 17 16 18 17 19 18 20 19 21
REMARK H PARENT
ROOT
ATOM      1  C   UNL     1      -0.163  -0.517   0.181  1.00  0.00     0.142 C 
ENDROOT
BRANCH   1   2
ATOM      2  P   UNL     1      -1.843  -0.157   0.708  1.00  0.00     0.371 P 
ATOM      3  O   UNL     1      -1.814   0.605   2.017  1.00  0.00    -0.254 OA
BRANCH   2   4
ATOM      4  O   UNL     1      -2.667   0.746  -0.486  1.00  0.00    -0.305 OA
BRANCH   4   5
ATOM      5  C   UNL     1      -2.021   1.985  -0.655  1.00  0.00     0.168 C 
ATOM      6  C   UNL     1      -2.830   2.840  -1.617  1.00  0.00     0.035 C 
ENDBRANCH   4   5
ENDBRANCH   2   4
BRANCH   2   7
ATOM      7  O   UNL     1      -2.649  -1.642   0.943  1.00  0.00    -0.305 OA
BRANCH   7   8
ATOM      8  C   UNL     1      -3.996  -1.373   1.253  1.00  0.00     0.168 C 
ATOM      9  C   UNL     1      -4.719  -2.688   1.504  1.00  0.00     0.035 C 
ENDBRANCH   7   8
ENDBRANCH   2   7
ENDBRANCH   1   2
BRANCH   1  10
ATOM     10  C   UNL     1       0.085  -1.795  -0.440  1.00  0.00     0.108 C 
ATOM     11  N   UNL     1       0.282  -2.821  -0.938  1.00  0.00    -0.192 NA
ENDBRANCH   1  10
BRANCH   1  12
ATOM     12  C   UNL     1       0.820   0.368   0.422  1.00  0.00     0.036 C 
BRANCH  12  13
ATOM     13  C   UNL     1       2.236   0.190   0.025  1.00  0.00    -0.024 A 
ATOM     14  C   UNL     1       3.246   0.535   0.933  1.00  0.00     0.015 A 
ATOM     15  C   UNL     1       2.593  -0.237  -1.265  1.00  0.00     0.015 A 
ATOM     16  C   UNL     1       4.592   0.410   0.578  1.00  0.00     0.086 A 
ATOM     17  C   UNL     1       3.938  -0.362  -1.622  1.00  0.00     0.086 A 
ATOM     18  C   UNL     1       4.954  -0.045  -0.701  1.00  0.00     0.269 A 
BRANCH  18  19
ATOM     19  N   UNL     1       6.341  -0.172  -1.064  1.00  0.00     0.062 N 
ATOM     20  O   UNL     1       6.668  -0.575  -2.200  1.00  0.00    -0.258 OA
ATOM     21  O   UNL     1       7.331   0.144  -0.163  1.00  0.00    -0.258 OA
ENDBRANCH  18  19
ENDBRANCH  12  13
ENDBRANCH   1  12
TORSDOF 9
