REMARK SMILES Cc1cc(OC(=O)N(C)C)n(-c2ccccc2)n1
REMARK SMILES IDX 5 1 4 2 2 3 3 4 18 5 11 6 1 7 12 8 13 9 17 10 14 11 16 12
REMARK SMILES IDX 15 13 6 14 8 15 7 16 9 17 10 18
REMARK H PARENT
ROOT
ATOM      1  O   UNL     1       0.824  -0.428   0.317  1.00  0.00    -0.391 OA
ENDROOT
BRANCH   1   2
ATOM      2  C   UNL     1      -0.490  -0.875   0.518  1.00  0.00     0.228 A 
ATOM      3  C   UNL     1      -2.269  -2.042   0.983  1.00  0.00     0.064 A 
ATOM      4  C   UNL     1      -0.894  -2.053   1.124  1.00  0.00     0.094 A 
ATOM      5  N   UNL     1      -2.665  -0.921   0.349  1.00  0.00    -0.170 NA
ATOM      6  N   UNL     1      -1.580  -0.215   0.068  1.00  0.00    -0.200 N 
ATOM      7  C   UNL     1      -3.206  -3.078   1.505  1.00  0.00     0.069 C 
BRANCH   6   8
ATOM      8  C   UNL     1      -1.616   1.041  -0.635  1.00  0.00     0.069 A 
ATOM      9  C   UNL     1      -0.684   2.059  -0.357  1.00  0.00     0.028 A 
ATOM     10  C   UNL     1      -2.615   1.276  -1.595  1.00  0.00     0.028 A 
ATOM     11  C   UNL     1      -0.738   3.274  -1.046  1.00  0.00     0.002 A 
ATOM     12  C   UNL     1      -2.665   2.493  -2.282  1.00  0.00     0.002 A 
ATOM     13  C   UNL     1      -1.725   3.490  -2.010  1.00  0.00     0.000 A 
ENDBRANCH   6   8
ENDBRANCH   1   2
BRANCH   1  14
ATOM     14  C   UNL     1       1.970  -0.924   0.954  1.00  0.00     0.416 C 
ATOM     15  N   UNL     1       3.266  -0.476   0.522  1.00  0.00    -0.314 N 
ATOM     16  O   UNL     1       1.873  -1.726   1.923  1.00  0.00    -0.224 OA
ATOM     17  C   UNL     1       4.472  -0.985   1.182  1.00  0.00     0.150 C 
ATOM     18  C   UNL     1       3.361   0.488  -0.576  1.00  0.00     0.150 C 
ENDBRANCH   1  14
TORSDOF 3
