REMARK SMILES Cn1[nH]cc2c(=Nc3ccccc3Cl)[nH]c(=Nc3ccccc3Cl)nc1-2
REMARK SMILES IDX 3 1 4 2 5 3 6 4 15 5 16 6 25 7 26 8 2 9 1 10 7 13 8 14 9 15
REMARK SMILES IDX 13 16 10 17 12 18 11 19 14 20 17 21 18 22 19 23 23 24 20 25
REMARK SMILES IDX 22 26 21 27 24 28
REMARK H PARENT 3 11 15 12
ROOT
ATOM      1  N   UNL     1       1.184   3.647  -1.368  1.00  0.00    -0.304 N 
ATOM      2  C   UNL     1       0.152   2.975  -1.946  1.00  0.00     0.117 A 
ATOM      3  C   UNL     1      -0.008   1.778  -1.275  1.00  0.00     0.079 A 
ATOM      4  C   UNL     1      -0.840   0.680  -1.387  1.00  0.00     0.146 A 
ATOM      5  N   UNL     1      -0.633  -0.361  -0.509  1.00  0.00    -0.308 N 
ATOM      6  C   UNL     1       0.347  -0.323   0.462  1.00  0.00     0.231 A 
ATOM      7  N   UNL     1       1.176   0.765   0.576  1.00  0.00    -0.193 NA
ATOM      8  C   UNL     1       0.991   1.797  -0.273  1.00  0.00     0.163 A 
ATOM      9  N   UNL     1       1.682   2.943  -0.354  1.00  0.00    -0.274 N 
ATOM     10  C   UNL     1       2.848   3.323   0.434  1.00  0.00     0.173 C 
ATOM     11  H   UNL     1       1.549   4.575  -1.679  1.00  0.00     0.187 HD
ATOM     12  H   UNL     1      -1.218  -1.225  -0.574  1.00  0.00     0.171 HD
ENDROOT
BRANCH   4  13
ATOM     13  N   UNL     1      -1.759   0.650  -2.311  1.00  0.00    -0.229 NA
BRANCH  13  14
ATOM     14  C   UNL     1      -2.723  -0.395  -2.502  1.00  0.00     0.084 A 
ATOM     15  C   UNL     1      -2.697  -1.133  -3.692  1.00  0.00     0.030 A 
ATOM     16  C   UNL     1      -3.731  -0.647  -1.548  1.00  0.00     0.066 A 
ATOM     17  C   UNL     1      -3.635  -2.145  -3.915  1.00  0.00     0.002 A 
ATOM     18  C   UNL     1      -4.667  -1.663  -1.779  1.00  0.00     0.023 A 
ATOM     19  C   UNL     1      -4.616  -2.413  -2.957  1.00  0.00     0.002 A 
ATOM     20  Cl  UNL     1      -3.870   0.317  -0.084  1.00  0.00    -0.082 Cl
ENDBRANCH  13  14
ENDBRANCH   4  13
BRANCH   6  21
ATOM     21  N   UNL     1       0.494  -1.344   1.255  1.00  0.00    -0.212 NA
BRANCH  21  22
ATOM     22  C   UNL     1       1.444  -1.419   2.328  1.00  0.00     0.086 A 
ATOM     23  C   UNL     1       2.410  -2.434   2.305  1.00  0.00     0.030 A 
ATOM     24  C   UNL     1       1.395  -0.532   3.426  1.00  0.00     0.066 A 
ATOM     25  C   UNL     1       3.348  -2.540   3.335  1.00  0.00     0.002 A 
ATOM     26  C   UNL     1       2.339  -0.646   4.454  1.00  0.00     0.023 A 
ATOM     27  C   UNL     1       3.316  -1.643   4.405  1.00  0.00     0.002 A 
ATOM     28  Cl  UNL     1       0.127   0.679   3.577  1.00  0.00    -0.082 Cl
ENDBRANCH  21  22
ENDBRANCH   6  21
TORSDOF 4
