REMARK SMILES CC(=O)Oc1c(C)c(OC(C)=O)c2c(c1C(C)=O)O[C@H]1CC(O)=C(C(C)=O)C(=O)[C@@]21C
REMARK SMILES IDX 22 1 24 2 28 3 29 4 30 5 31 6 13 7 8 8 6 9 7 10 5 11 15 12
REMARK SMILES IDX 14 13 19 14 20 15 21 16 23 17 25 19 26 20 27 21 9 22 10 23
REMARK SMILES IDX 11 24 12 25 16 26 17 27 18 28 4 29 2 30 1 31 3 32
REMARK H PARENT 23 18
ROOT
ATOM      1  C   UNL     1      -3.788  -1.313  -0.522  1.00  0.00     0.110 C 
ATOM      2  C   UNL     1      -3.659  -0.073  -0.015  1.00  0.00     0.099 C 
ATOM      3  C   UNL     1      -2.308   0.529   0.018  1.00  0.00     0.184 C 
ATOM      4  O   UNL     1      -2.039   1.395   0.893  1.00  0.00    -0.293 OA
ATOM      5  C   UNL     1      -1.301   0.180  -1.068  1.00  0.00     0.101 C 
ATOM      6  C   UNL     1      -1.419   1.203  -2.212  1.00  0.00     0.029 C 
ATOM      7  C   UNL     1       0.128   0.119  -0.572  1.00  0.00     0.056 A 
ATOM      8  C   UNL     1       0.923   1.135  -0.017  1.00  0.00     0.145 A 
ATOM      9  C   UNL     1       2.285   0.853   0.271  1.00  0.00     0.036 A 
ATOM     10  C   UNL     1       3.219   1.959   0.698  1.00  0.00     0.052 C 
ATOM     11  C   UNL     1       2.791  -0.462   0.067  1.00  0.00     0.152 A 
ATOM     12  C   UNL     1       1.983  -1.451  -0.544  1.00  0.00     0.103 A 
ATOM     13  C   UNL     1       0.663  -1.108  -0.865  1.00  0.00     0.142 A 
ATOM     14  O   UNL     1      -0.254  -1.922  -1.496  1.00  0.00    -0.487 OA
ATOM     15  C   UNL     1      -1.518  -1.282  -1.620  1.00  0.00     0.199 C 
ATOM     16  C   UNL     1      -2.556  -2.113  -0.845  1.00  0.00     0.122 C 
ENDROOT
BRANCH   1  17
ATOM     17  O   UNL     1      -5.045  -1.886  -0.711  1.00  0.00    -0.511 OA
ATOM     18  H   UNL     1      -5.151  -2.827  -1.071  1.00  0.00     0.293 HD
ENDBRANCH   1  17
BRANCH   2  19
ATOM     19  C   UNL     1      -4.817   0.725   0.468  1.00  0.00     0.166 C 
ATOM     20  C   UNL     1      -6.033   0.093   1.076  1.00  0.00     0.094 C 
ATOM     21  O   UNL     1      -4.782   1.981   0.366  1.00  0.00    -0.294 OA
ENDBRANCH   2  19
BRANCH   8  22
ATOM     22  O   UNL     1       0.377   2.411   0.176  1.00  0.00    -0.426 OA
BRANCH  22  23
ATOM     23  C   UNL     1       0.390   3.085   1.403  1.00  0.00     0.308 C 
ATOM     24  C   UNL     1      -0.063   4.503   1.463  1.00  0.00     0.139 C 
ATOM     25  O   UNL     1       0.698   2.482   2.467  1.00  0.00    -0.252 OA
ENDBRANCH  22  23
ENDBRANCH   8  22
BRANCH  12  26
ATOM     26  C   UNL     1       2.516  -2.811  -0.824  1.00  0.00     0.167 C 
ATOM     27  C   UNL     1       2.021  -3.635  -1.974  1.00  0.00     0.094 C 
ATOM     28  O   UNL     1       3.391  -3.310  -0.065  1.00  0.00    -0.294 OA
ENDBRANCH  12  26
BRANCH  11  29
ATOM     29  O   UNL     1       4.113  -0.779   0.409  1.00  0.00    -0.425 OA
BRANCH  29  30
ATOM     30  C   UNL     1       4.609  -0.697   1.715  1.00  0.00     0.308 C 
ATOM     31  C   UNL     1       6.064  -0.899   1.963  1.00  0.00     0.139 C 
ATOM     32  O   UNL     1       3.837  -0.471   2.686  1.00  0.00    -0.252 OA
ENDBRANCH  29  30
ENDBRANCH  11  29
TORSDOF 7
