REMARK SMILES C[NH+]1CCN(c2nc(=N)c(Br)c(Cl)[nH]2)CC1
REMARK SMILES IDX 14 1 6 2 7 3 8 4 10 5 11 6 12 7 13 8 5 10 4 11 15 12 3 13
REMARK SMILES IDX 16 14 2 15 1 16 9 18
REMARK H PARENT 14 9 2 17 9 19
ROOT
ATOM      1  N   UNL     1       2.261   0.220   1.012  1.00  0.00    -0.315 N 
ATOM      2  C   UNL     1       1.266  -0.712   0.944  1.00  0.00     0.206 A 
ATOM      3  N   UNL     1       1.493  -1.966   1.418  1.00  0.00    -0.194 NA
ATOM      4  C   UNL     1       2.685  -2.315   1.969  1.00  0.00     0.165 A 
ATOM      5  C   UNL     1       3.714  -1.370   2.055  1.00  0.00     0.097 A 
ATOM      6  Br  UNL     1       5.411  -1.836   2.831  1.00  0.00    -0.043 Br
ATOM      7  C   UNL     1       3.471  -0.082   1.557  1.00  0.00     0.127 A 
ATOM      8  Cl  UNL     1       4.716   1.161   1.613  1.00  0.00    -0.063 Cl
ATOM      9  H   UNL     1       2.115   1.178   0.623  1.00  0.00     0.171 HD
ENDROOT
BRANCH   2  10
ATOM     10  N   UNL     1      -0.018  -0.389   0.373  1.00  0.00    -0.331 N 
ATOM     11  C   UNL     1      -0.523   0.989   0.391  1.00  0.00     0.181 C 
ATOM     12  C   UNL     1      -0.678  -1.354  -0.514  1.00  0.00     0.181 C 
ATOM     13  C   UNL     1      -2.051   0.996   0.510  1.00  0.00     0.283 C 
ATOM     14  C   UNL     1      -2.199  -1.268  -0.355  1.00  0.00     0.283 C 
ATOM     15  N   UNL     1      -2.668   0.124  -0.512  1.00  0.00    -0.334 N 
ATOM     16  C   UNL     1      -4.135   0.179  -0.403  1.00  0.00     0.332 C 
ATOM     17  H   UNL     1      -2.404   0.472  -1.466  1.00  0.00     0.347 HD
ENDBRANCH   2  10
BRANCH   4  18
ATOM     18  N   UNL     1       2.862  -3.519   2.410  1.00  0.00    -0.282 NA
ATOM     19  H   UNL     1       2.106  -4.239   2.355  1.00  0.00     0.190 HD
ENDBRANCH   4  18
TORSDOF 2
