REMARK SMILES Cc1nnsc1C(=O)NCc1c(F)cccc1Cl
REMARK SMILES IDX 7 1 8 2 9 3 6 5 2 6 3 7 4 8 5 9 1 10 10 11 11 12 12 13 17 14
REMARK SMILES IDX 14 15 16 16 15 17 13 18 18 19
REMARK H PARENT 9 4
ROOT
ATOM      1  C   UNL     1      -1.220  -0.072   0.730  1.00  0.00     0.265 C 
ATOM      2  O   UNL     1      -1.075   1.151   0.464  1.00  0.00    -0.268 OA
ATOM      3  N   UNL     1      -0.215  -0.760   1.491  1.00  0.00    -0.347 N 
ATOM      4  H   UNL     1      -0.378  -1.748   1.786  1.00  0.00     0.164 HD
ENDROOT
BRANCH   1   5
ATOM      5  C   UNL     1      -2.422  -0.788   0.257  1.00  0.00     0.136 A 
ATOM      6  C   UNL     1      -3.511  -0.297  -0.480  1.00  0.00     0.085 A 
ATOM      7  N   UNL     1      -4.471  -1.230  -0.771  1.00  0.00    -0.143 NA
ATOM      8  N   UNL     1      -4.223  -2.454  -0.313  1.00  0.00    -0.090 NA
ATOM      9  S   UNL     1      -2.771  -2.405   0.483  1.00  0.00    -0.006 S 
ATOM     10  C   UNL     1      -3.652   1.121  -0.933  1.00  0.00     0.071 C 
ENDBRANCH   1   5
BRANCH   3  11
ATOM     11  C   UNL     1       1.038  -0.123   1.895  1.00  0.00     0.156 C 
BRANCH  11  12
ATOM     12  C   UNL     1       1.935   0.085   0.697  1.00  0.00     0.026 A 
ATOM     13  C   UNL     1       2.161   1.385   0.198  1.00  0.00     0.129 A 
ATOM     14  C   UNL     1       2.541  -1.014   0.046  1.00  0.00     0.048 A 
ATOM     15  C   UNL     1       2.974   1.580  -0.922  1.00  0.00     0.040 A 
ATOM     16  C   UNL     1       3.353  -0.803  -1.075  1.00  0.00     0.021 A 
ATOM     17  C   UNL     1       3.568   0.489  -1.557  1.00  0.00     0.005 A 
ATOM     18  F   UNL     1       1.597   2.467   0.793  1.00  0.00    -0.207 F 
ATOM     19  Cl  UNL     1       2.308  -2.667   0.605  1.00  0.00    -0.084 Cl
ENDBRANCH  11  12
ENDBRANCH   3  11
TORSDOF 3
