REMARK SMILES O=C1NCCc2c1[nH]c1ccccc21
REMARK SMILES IDX 1 1 2 2 3 3 4 4 5 5 6 6 7 7 8 8 9 9 10 10 11 11 12 12 13 13
REMARK SMILES IDX 14 14
REMARK H PARENT 3 15 8 16
ROOT
ATOM      1  O   UNL     1      -2.071   3.047  -0.010  1.00  0.00    -0.268 OA
ATOM      2  C   UNL     1      -1.946   1.796   0.065  1.00  0.00     0.268 C 
ATOM      3  N   UNL     1      -3.074   0.957   0.352  1.00  0.00    -0.350 N 
ATOM      4  C   UNL     1      -2.999  -0.499   0.143  1.00  0.00     0.121 C 
ATOM      5  C   UNL     1      -1.635  -1.083   0.581  1.00  0.00     0.060 C 
ATOM      6  C   UNL     1      -0.515  -0.208   0.099  1.00  0.00    -0.008 A 
ATOM      7  C   UNL     1      -0.650   1.148  -0.101  1.00  0.00     0.108 A 
ATOM      8  N   UNL     1       0.533   1.737  -0.388  1.00  0.00    -0.350 N 
ATOM      9  C   UNL     1       1.432   0.732  -0.353  1.00  0.00     0.046 A 
ATOM     10  C   UNL     1       2.809   0.825  -0.549  1.00  0.00     0.027 A 
ATOM     11  C   UNL     1       3.573  -0.350  -0.426  1.00  0.00     0.002 A 
ATOM     12  C   UNL     1       2.952  -1.579  -0.106  1.00  0.00     0.001 A 
ATOM     13  C   UNL     1       1.561  -1.647   0.093  1.00  0.00     0.010 A 
ATOM     14  C   UNL     1       0.830  -0.469  -0.047  1.00  0.00     0.003 A 
ATOM     15  H   UNL     1      -3.990   1.392   0.603  1.00  0.00     0.163 HD
ATOM     16  H   UNL     1       0.715   2.749  -0.566  1.00  0.00     0.167 HD
ENDROOT
TORSDOF 0
