REMARK SMILES Cc1nn(-c2ccccc2)c2c1[C@@H](c1ccc([N+](=O)[O-])cc1)C(C#N)=C(N)O2
REMARK SMILES IDX 1 1 2 2 3 3 4 4 11 5 12 6 13 7 23 8 26 9 28 10 5 11 6 12
REMARK SMILES IDX 10 13 7 14 9 15 8 16 14 17 15 18 22 19 16 20 21 21 17 22
REMARK SMILES IDX 18 23 19 24 20 25 24 26 25 27 27 28
REMARK H PARENT 27 29 27 30
ROOT
ATOM      1  C   UNL     1       0.231  -0.728   3.060  1.00  0.00     0.069 C 
ATOM      2  C   UNL     1       0.840  -0.509   1.716  1.00  0.00     0.068 A 
ATOM      3  N   UNL     1       2.001   0.154   1.505  1.00  0.00    -0.170 NA
ATOM      4  N   UNL     1       2.202   0.221   0.193  1.00  0.00    -0.200 N 
ATOM      5  C   UNL     1       1.174  -0.396  -0.422  1.00  0.00     0.229 A 
ATOM      6  C   UNL     1       0.292  -0.860   0.496  1.00  0.00     0.051 A 
ATOM      7  C   UNL     1      -0.981  -1.560   0.122  1.00  0.00     0.103 C 
ATOM      8  C   UNL     1      -1.056  -1.802  -1.389  1.00  0.00     0.102 C 
ATOM      9  C   UNL     1      -0.118  -1.318  -2.255  1.00  0.00     0.207 C 
ATOM     10  O   UNL     1       0.997  -0.599  -1.785  1.00  0.00    -0.422 OA
ENDROOT
BRANCH   4  11
ATOM     11  C   UNL     1       3.352   0.844  -0.409  1.00  0.00     0.069 A 
ATOM     12  C   UNL     1       3.288   1.406  -1.698  1.00  0.00     0.028 A 
ATOM     13  C   UNL     1       4.560   0.923   0.308  1.00  0.00     0.028 A 
ATOM     14  C   UNL     1       4.414   2.013  -2.262  1.00  0.00     0.002 A 
ATOM     15  C   UNL     1       5.683   1.530  -0.261  1.00  0.00     0.002 A 
ATOM     16  C   UNL     1       5.612   2.072  -1.546  1.00  0.00     0.000 A 
ENDBRANCH   4  11
BRANCH   7  17
ATOM     17  C   UNL     1      -2.170  -0.748   0.591  1.00  0.00    -0.034 A 
ATOM     18  C   UNL     1      -3.053  -1.274   1.546  1.00  0.00     0.012 A 
ATOM     19  C   UNL     1      -2.399   0.545   0.089  1.00  0.00     0.012 A 
ATOM     20  C   UNL     1      -4.145  -0.524   1.991  1.00  0.00     0.086 A 
ATOM     21  C   UNL     1      -3.491   1.295   0.533  1.00  0.00     0.086 A 
ATOM     22  C   UNL     1      -4.377   0.769   1.490  1.00  0.00     0.269 A 
BRANCH  22  23
ATOM     23  N   UNL     1      -5.500   1.545   1.946  1.00  0.00     0.062 N 
ATOM     24  O   UNL     1      -6.290   1.083   2.796  1.00  0.00    -0.258 OA
ATOM     25  O   UNL     1      -5.723   2.810   1.453  1.00  0.00    -0.258 OA
ENDBRANCH  22  23
ENDBRANCH   7  17
BRANCH   8  26
ATOM     26  C   UNL     1      -2.175  -2.580  -1.873  1.00  0.00     0.101 C 
ATOM     27  N   UNL     1      -3.072  -3.203  -2.258  1.00  0.00    -0.193 NA
ENDBRANCH   8  26
BRANCH   9  28
ATOM     28  N   UNL     1      -0.224  -1.529  -3.669  1.00  0.00    -0.369 N 
ATOM     29  H   UNL     1       0.516  -1.150  -4.300  1.00  0.00     0.159 HD
ATOM     30  H   UNL     1      -1.020  -2.043  -4.105  1.00  0.00     0.159 HD
ENDBRANCH   9  28
TORSDOF 5
