REMARK SMILES Cc1cc(C)c(N)c(C(=O)[O-])c1
REMARK SMILES IDX 8 1 6 2 12 3 4 4 2 5 3 6 5 7 1 8 9 9 10 10 11 11 7 12
REMARK H PARENT 7 13 7 14
ROOT
ATOM      1  C   UNL     1      -0.015   0.326   1.377  1.00  0.00     0.021 A 
ATOM      2  C   UNL     1      -1.056  -0.129   0.525  1.00  0.00     0.044 A 
ATOM      3  C   UNL     1       1.283   0.478   0.861  1.00  0.00     0.015 A 
ATOM      4  C   UNL     1      -0.780  -0.361  -0.846  1.00  0.00    -0.027 A 
ATOM      5  C   UNL     1       1.558   0.215  -0.484  1.00  0.00    -0.050 A 
ATOM      6  C   UNL     1       0.521  -0.176  -1.336  1.00  0.00     0.009 A 
ATOM      7  C   UNL     1      -1.856  -0.827  -1.793  1.00  0.00     0.046 C 
ATOM      8  C   UNL     1       2.939   0.435  -1.029  1.00  0.00     0.044 C 
ENDROOT
BRANCH   1   9
ATOM      9  C   UNL     1      -0.247   0.700   2.792  1.00  0.00     0.074 C 
ATOM     10  O   UNL     1      -1.344   1.199   3.156  1.00  0.00    -0.545 OA
ATOM     11  O   UNL     1       0.773   0.561   3.726  1.00  0.00    -0.545 OA
ENDBRANCH   1   9
BRANCH   2  12
ATOM     12  N   UNL     1      -2.364  -0.407   1.052  1.00  0.00    -0.398 N 
ATOM     13  H   UNL     1      -3.199  -0.503   0.434  1.00  0.00     0.156 HD
ATOM     14  H   UNL     1      -2.508  -0.630   2.061  1.00  0.00     0.156 HD
ENDBRANCH   2  12
TORSDOF 2
