REMARK SMILES C=C(O)C1=C(O)[C@@]2(C)c3c(OC(C)=O)c(C)c(OC(C)=O)c(C(C)=O)c3O[C@H]2CC1=O
REMARK SMILES IDX 4 1 5 2 7 3 8 4 9 5 10 6 15 7 16 8 17 9 22 10 26 11 27 12
REMARK SMILES IDX 28 13 29 14 30 15 31 16 2 17 1 18 3 19 6 21 11 23 12 24
REMARK SMILES IDX 13 25 14 26 23 27 24 28 25 29 18 30 19 31 20 32 21 33
REMARK H PARENT 3 20 6 22
ROOT
ATOM      1  C   UNL     1      -3.219  -0.015   0.119  1.00  0.00     0.097 C 
ATOM      2  C   UNL     1      -2.326  -0.993   0.398  1.00  0.00     0.121 C 
ATOM      3  C   UNL     1      -1.183  -0.791   1.401  1.00  0.00     0.095 C 
ATOM      4  C   UNL     1      -0.948  -2.073   2.224  1.00  0.00     0.029 C 
ATOM      5  C   UNL     1       0.070  -0.396   0.651  1.00  0.00     0.055 A 
ATOM      6  C   UNL     1       0.780  -1.107  -0.328  1.00  0.00     0.145 A 
ATOM      7  C   UNL     1       1.935  -0.511  -0.898  1.00  0.00     0.036 A 
ATOM      8  C   UNL     1       2.801  -1.277  -1.867  1.00  0.00     0.052 C 
ATOM      9  C   UNL     1       2.296   0.813  -0.540  1.00  0.00     0.152 A 
ATOM     10  C   UNL     1       1.521   1.535   0.403  1.00  0.00     0.103 A 
ATOM     11  C   UNL     1       0.433   0.880   0.992  1.00  0.00     0.142 A 
ATOM     12  O   UNL     1      -0.416   1.410   1.937  1.00  0.00    -0.487 OA
ATOM     13  C   UNL     1      -1.366   0.444   2.370  1.00  0.00     0.199 C 
ATOM     14  C   UNL     1      -2.764   1.057   2.383  1.00  0.00     0.128 C 
ATOM     15  C   UNL     1      -3.280   1.171   0.992  1.00  0.00     0.173 C 
ATOM     16  O   UNL     1      -3.803   2.247   0.594  1.00  0.00    -0.294 OA
ENDROOT
BRANCH   1  17
ATOM     17  C   UNL     1      -4.137  -0.115  -1.041  1.00  0.00     0.122 C 
ATOM     18  C   UNL     1      -5.436   0.168  -0.917  1.00  0.00     0.059 C 
BRANCH  17  19
ATOM     19  O   UNL     1      -3.624  -0.503  -2.280  1.00  0.00    -0.508 OA
ATOM     20  H   UNL     1      -4.210  -0.587  -3.102  1.00  0.00     0.293 HD
ENDBRANCH  17  19
ENDBRANCH   1  17
BRANCH   2  21
ATOM     21  O   UNL     1      -2.402  -2.231  -0.252  1.00  0.00    -0.510 OA
ATOM     22  H   UNL     1      -3.175  -2.511  -0.842  1.00  0.00     0.293 HD
ENDBRANCH   2  21
BRANCH   6  23
ATOM     23  O   UNL     1       0.355  -2.389  -0.698  1.00  0.00    -0.426 OA
BRANCH  23  24
ATOM     24  C   UNL     1       0.013  -2.739  -2.010  1.00  0.00     0.308 C 
ATOM     25  C   UNL     1      -0.289  -4.162  -2.333  1.00  0.00     0.139 C 
ATOM     26  O   UNL     1      -0.118  -1.856  -2.900  1.00  0.00    -0.252 OA
ENDBRANCH  23  24
ENDBRANCH   6  23
BRANCH  10  27
ATOM     27  C   UNL     1       1.810   2.956   0.719  1.00  0.00     0.167 C 
ATOM     28  C   UNL     1       1.614   3.513   2.095  1.00  0.00     0.094 C 
ATOM     29  O   UNL     1       2.196   3.732  -0.197  1.00  0.00    -0.294 OA
ENDBRANCH  10  27
BRANCH   9  30
ATOM     30  O   UNL     1       3.430   1.387  -1.132  1.00  0.00    -0.425 OA
BRANCH  30  31
ATOM     31  C   UNL     1       4.542   1.821  -0.401  1.00  0.00     0.308 C 
ATOM     32  C   UNL     1       5.658   2.512  -1.106  1.00  0.00     0.139 C 
ATOM     33  O   UNL     1       4.638   1.577   0.833  1.00  0.00    -0.252 OA
ENDBRANCH  30  31
ENDBRANCH   9  30
TORSDOF 8
