REMARK SMILES Oc1nc2c(ncn2-c2ccccc2)c(=[SH2])[nH]1
REMARK SMILES IDX 17 1 2 2 3 3 4 4 5 5 6 6 7 7 8 8 15 9 1 11 16 13 9 16 10 17
REMARK SMILES IDX 14 18 11 19 13 20 12 21
REMARK H PARENT 17 10 1 12 16 14 16 15
ROOT
ATOM      1  N   UNL     1      -3.207  -0.507   1.208  1.00  0.00    -0.303 N 
ATOM      2  C   UNL     1      -2.057  -0.862   1.874  1.00  0.00     0.293 A 
ATOM      3  N   UNL     1      -0.833  -0.569   1.344  1.00  0.00    -0.177 NA
ATOM      4  C   UNL     1      -0.785   0.086   0.160  1.00  0.00     0.172 A 
ATOM      5  C   UNL     1      -1.901   0.432  -0.524  1.00  0.00     0.137 A 
ATOM      6  N   UNL     1      -1.572   1.019  -1.690  1.00  0.00    -0.232 NA
ATOM      7  C   UNL     1      -0.212   1.002  -1.667  1.00  0.00     0.207 A 
ATOM      8  N   UNL     1       0.303   0.437  -0.543  1.00  0.00    -0.283 N 
ATOM      9  C   UNL     1      -3.159   0.137  -0.001  1.00  0.00     0.091 A 
ATOM     10  H   UNL     1      -4.132  -0.743   1.633  1.00  0.00     0.172 HD
ENDROOT
BRANCH   2  11
ATOM     11  O   UNL     1      -2.129  -1.526   3.095  1.00  0.00    -0.480 OA
ATOM     12  H   UNL     1      -3.021  -1.759   3.515  1.00  0.00     0.296 HD
ENDBRANCH   2  11
BRANCH   9  13
ATOM     13  S   UNL     1      -4.526   0.529  -0.773  1.00  0.00    -0.190 S 
ATOM     14  H   UNL     1      -4.157   1.032  -2.018  1.00  0.00     0.095 HD
ATOM     15  H   UNL     1      -5.096  -0.706  -1.068  1.00  0.00     0.095 HD
ENDBRANCH   9  13
BRANCH   8  16
ATOM     16  C   UNL     1       1.693   0.252  -0.213  1.00  0.00     0.049 A 
ATOM     17  C   UNL     1       2.638   0.019  -1.229  1.00  0.00     0.027 A 
ATOM     18  C   UNL     1       2.132   0.318   1.122  1.00  0.00     0.027 A 
ATOM     19  C   UNL     1       3.989  -0.157  -0.914  1.00  0.00     0.002 A 
ATOM     20  C   UNL     1       3.484   0.142   1.433  1.00  0.00     0.002 A 
ATOM     21  C   UNL     1       4.411  -0.097   0.416  1.00  0.00     0.000 A 
ENDBRANCH   8  16
TORSDOF 3
