REMARK SMILES CCOC(=O)c1cc(-c2ccccc2)nc2ccc(C)cc12
REMARK SMILES IDX 3 1 2 2 1 3 4 4 5 5 6 6 7 7 22 8 8 9 21 10 16 11 15 12 19 13
REMARK SMILES IDX 17 14 18 15 20 16 9 17 10 18 14 19 11 20 13 21 12 22
REMARK H PARENT
ROOT
ATOM      1  O   UNL     1      -2.111  -2.021  -0.591  1.00  0.00    -0.462 OA
ENDROOT
BRANCH   1   2
ATOM      2  C   UNL     1      -3.221  -2.775  -1.064  1.00  0.00     0.230 C 
ATOM      3  C   UNL     1      -2.984  -4.253  -0.798  1.00  0.00     0.049 C 
ENDBRANCH   1   2
BRANCH   1   4
ATOM      4  C   UNL     1      -2.042  -0.628  -0.698  1.00  0.00     0.338 C 
ATOM      5  O   UNL     1      -2.973   0.011  -1.260  1.00  0.00    -0.246 OA
BRANCH   4   6
ATOM      6  C   UNL     1      -0.835   0.078  -0.210  1.00  0.00     0.071 A 
ATOM      7  C   UNL     1       0.408  -0.541  -0.417  1.00  0.00     0.045 A 
ATOM      8  C   UNL     1      -0.875   1.351   0.417  1.00  0.00     0.015 A 
ATOM      9  C   UNL     1       1.596   0.105  -0.043  1.00  0.00     0.072 A 
ATOM     10  C   UNL     1      -2.080   2.006   0.754  1.00  0.00     0.014 A 
ATOM     11  C   UNL     1       0.351   1.974   0.756  1.00  0.00     0.072 A 
ATOM     12  N   UNL     1       1.529   1.343   0.515  1.00  0.00    -0.248 NA
ATOM     13  C   UNL     1      -2.062   3.277   1.349  1.00  0.00    -0.050 A 
ATOM     14  C   UNL     1       0.361   3.234   1.362  1.00  0.00     0.029 A 
ATOM     15  C   UNL     1      -0.837   3.882   1.657  1.00  0.00     0.005 A 
ATOM     16  C   UNL     1      -3.349   3.949   1.730  1.00  0.00     0.044 C 
BRANCH   9  17
ATOM     17  C   UNL     1       2.926  -0.516  -0.269  1.00  0.00     0.000 A 
ATOM     18  C   UNL     1       4.053   0.299  -0.483  1.00  0.00     0.010 A 
ATOM     19  C   UNL     1       3.096  -1.915  -0.245  1.00  0.00     0.010 A 
ATOM     20  C   UNL     1       5.314  -0.270  -0.690  1.00  0.00     0.001 A 
ATOM     21  C   UNL     1       4.359  -2.479  -0.451  1.00  0.00     0.001 A 
ATOM     22  C   UNL     1       5.466  -1.658  -0.676  1.00  0.00     0.000 A 
ENDBRANCH   9  17
ENDBRANCH   4   6
ENDBRANCH   1   4
TORSDOF 4
