REMARK SMILES CCc1oc2ccccc2c1C(=O)c1cc(Br)c(O)c(Br)c1
REMARK SMILES IDX 12 1 13 2 11 3 3 4 4 5 5 6 10 7 6 8 9 9 7 10 8 11 2 12 1 13
REMARK SMILES IDX 14 14 15 15 22 16 16 17 20 18 18 19 17 20 21 21 19 22
REMARK H PARENT 19 23
ROOT
ATOM      1  C   UNL     1       0.082   0.852  -1.037  1.00  0.00     0.197 C 
ATOM      2  O   UNL     1      -0.273   1.593  -1.994  1.00  0.00    -0.288 OA
ENDROOT
BRANCH   1   3
ATOM      3  C   UNL     1      -0.927   0.452  -0.034  1.00  0.00     0.072 A 
ATOM      4  C   UNL     1      -1.948   1.238   0.509  1.00  0.00     0.116 A 
ATOM      5  O   UNL     1      -2.671   0.530   1.358  1.00  0.00    -0.460 OA
ATOM      6  C   UNL     1      -2.173  -0.682   1.393  1.00  0.00     0.135 A 
ATOM      7  C   UNL     1      -1.096  -0.791   0.550  1.00  0.00     0.032 A 
ATOM      8  C   UNL     1      -2.631  -1.763   2.143  1.00  0.00     0.048 A 
ATOM      9  C   UNL     1      -0.425  -2.004   0.375  1.00  0.00     0.013 A 
ATOM     10  C   UNL     1      -1.960  -2.991   2.004  1.00  0.00     0.004 A 
ATOM     11  C   UNL     1      -0.865  -3.112   1.121  1.00  0.00     0.001 A 
BRANCH   4  12
ATOM     12  C   UNL     1      -2.235   2.675   0.196  1.00  0.00     0.073 C 
ATOM     13  C   UNL     1      -3.289   2.786  -0.899  1.00  0.00     0.012 C 
ENDBRANCH   4  12
ENDBRANCH   1   3
BRANCH   1  14
ATOM     14  C   UNL     1       1.495   0.413  -0.946  1.00  0.00     0.025 A 
ATOM     15  C   UNL     1       2.269   0.289  -2.110  1.00  0.00     0.031 A 
ATOM     16  C   UNL     1       2.089   0.146   0.299  1.00  0.00     0.031 A 
ATOM     17  C   UNL     1       3.604  -0.120  -2.035  1.00  0.00     0.061 A 
ATOM     18  C   UNL     1       3.423  -0.265   0.382  1.00  0.00     0.061 A 
ATOM     19  C   UNL     1       4.189  -0.403  -0.792  1.00  0.00     0.143 A 
ATOM     20  Br  UNL     1       4.618  -0.291  -3.650  1.00  0.00    -0.047 Br
ATOM     21  Br  UNL     1       4.153  -0.624   2.117  1.00  0.00    -0.047 Br
BRANCH  19  22
ATOM     22  O   UNL     1       5.523  -0.813  -0.750  1.00  0.00    -0.506 OA
ATOM     23  H   UNL     1       6.004  -1.032   0.113  1.00  0.00     0.293 HD
ENDBRANCH  19  22
ENDBRANCH   1  14
TORSDOF 4
