REMARK SMILES [S-]c1nc2ccc(Cl)cc2s1
REMARK SMILES IDX 2 1 1 2 3 3 11 4 4 5 10 6 5 7 9 8 6 9 7 10 8 11
REMARK H PARENT
ROOT
ATOM      1  C   UNL     1       2.744  -0.420  -0.087  1.00  0.00    -0.026 A 
ATOM      2  S   UNL     1       4.540  -0.483  -0.162  1.00  0.00    -0.408 S 
ATOM      3  N   UNL     1       2.039   0.734  -0.154  1.00  0.00    -0.269 NA
ATOM      4  S   UNL     1       1.753  -1.782   0.073  1.00  0.00    -0.346 S 
ATOM      5  C   UNL     1       0.707   0.488  -0.073  1.00  0.00     0.060 A 
ATOM      6  C   UNL     1       0.359  -0.848   0.056  1.00  0.00    -0.039 A 
ATOM      7  C   UNL     1      -0.281   1.473  -0.113  1.00  0.00     0.029 A 
ATOM      8  C   UNL     1      -0.967  -1.261   0.151  1.00  0.00     0.021 A 
ATOM      9  C   UNL     1      -1.629   1.083  -0.019  1.00  0.00     0.023 A 
ATOM     10  C   UNL     1      -1.971  -0.279   0.112  1.00  0.00     0.041 A 
ATOM     11  Cl  UNL     1      -3.657  -0.750   0.227  1.00  0.00    -0.084 Cl
ENDROOT
TORSDOF 0
