REMARK SMILES C[N@H+]1[C@@H]2CC[C@H]1C[C@@H](OC(c1ccccc1)c1ccccc1)C2
REMARK SMILES IDX 9 1 8 2 2 3 6 4 3 5 5 6 7 7 4 8 23 9 1 10 10 12 11 13 12 14
REMARK SMILES IDX 16 15 13 16 15 17 14 18 17 19 18 20 22 21 19 22 21 23 20 24
REMARK H PARENT 2 11
ROOT
ATOM      1  O   UNL     1       2.217  -0.023   1.003  1.00  0.00    -0.365 OA
ENDROOT
BRANCH   1   2
ATOM      2  C   UNL     1       3.031   1.124   0.583  1.00  0.00     0.131 C 
ATOM      3  N   UNL     1       5.012   2.885  -0.850  1.00  0.00    -0.332 N 
ATOM      4  C   UNL     1       3.656   2.824  -1.516  1.00  0.00     0.186 C 
ATOM      5  C   UNL     1       5.375   1.454  -0.887  1.00  0.00     0.186 C 
ATOM      6  C   UNL     1       3.935   1.992  -2.777  1.00  0.00     0.071 C 
ATOM      7  C   UNL     1       2.584   2.086  -0.636  1.00  0.00     0.097 C 
ATOM      8  C   UNL     1       5.008   0.928  -2.301  1.00  0.00     0.071 C 
ATOM      9  C   UNL     1       4.530   0.607   0.223  1.00  0.00     0.097 C 
ATOM     10  C   UNL     1       5.073   3.555   0.477  1.00  0.00     0.333 C 
ATOM     11  H   UNL     1       5.552   3.500  -1.579  1.00  0.00     0.348 HD
ENDBRANCH   1   2
BRANCH   1  12
ATOM     12  C   UNL     1       1.549  -0.003   2.325  1.00  0.00     0.179 C 
BRANCH  12  13
ATOM     13  C   UNL     1       0.226   0.780   2.475  1.00  0.00    -0.015 A 
ATOM     14  C   UNL     1      -0.219   1.286   3.722  1.00  0.00     0.007 A 
ATOM     15  C   UNL     1      -0.678   0.912   1.386  1.00  0.00     0.007 A 
ATOM     16  C   UNL     1      -1.161   2.298   3.741  1.00  0.00     0.000 A 
ATOM     17  C   UNL     1      -1.859   1.645   1.540  1.00  0.00     0.000 A 
ATOM     18  C   UNL     1      -2.045   2.435   2.690  1.00  0.00     0.000 A 
ENDBRANCH  12  13
BRANCH  12  19
ATOM     19  C   UNL     1       2.523   0.174   3.522  1.00  0.00    -0.015 A 
ATOM     20  C   UNL     1       2.870  -1.074   4.153  1.00  0.00     0.007 A 
ATOM     21  C   UNL     1       2.629   1.370   4.303  1.00  0.00     0.007 A 
ATOM     22  C   UNL     1       3.294  -1.168   5.477  1.00  0.00     0.000 A 
ATOM     23  C   UNL     1       2.859   1.186   5.744  1.00  0.00     0.000 A 
ATOM     24  C   UNL     1       3.225  -0.049   6.294  1.00  0.00     0.000 A 
ENDBRANCH  12  19
ENDBRANCH   1  12
TORSDOF 4
