REMARK SMILES Cc1ccc(S(=O)(=O)NC(=O)Nc2nccs2)cc1
REMARK SMILES IDX 6 1 7 2 8 3 9 4 10 5 12 6 11 8 13 10 14 11 17 12 15 13 16 14
REMARK SMILES IDX 5 15 4 16 18 17 3 18 19 19 2 20 1 21
REMARK H PARENT 9 7 12 9
ROOT
ATOM      1  S   UNL     1       0.262  -2.294   1.584  1.00  0.00     0.265 S 
ATOM      2  O   UNL     1      -0.532  -2.126   2.849  1.00  0.00    -0.201 OA
ATOM      3  O   UNL     1       1.024  -3.587   1.650  1.00  0.00    -0.201 OA
ENDROOT
BRANCH   1   4
ATOM      4  N   UNL     1      -0.829  -2.338   0.238  1.00  0.00    -0.230 N 
ATOM      5  C   UNL     1      -1.685  -1.235  -0.075  1.00  0.00     0.334 C 
ATOM      6  N   UNL     1      -2.553  -1.312  -1.215  1.00  0.00    -0.283 N 
ATOM      7  H   UNL     1      -0.845  -3.192  -0.362  1.00  0.00     0.185 HD
ATOM      8  O   UNL     1      -1.672  -0.203   0.651  1.00  0.00    -0.247 OA
ATOM      9  H   UNL     1      -2.546  -2.188  -1.784  1.00  0.00     0.174 HD
BRANCH   6  10
ATOM     10  C   UNL     1      -3.432  -0.256  -1.626  1.00  0.00     0.190 A 
ATOM     11  N   UNL     1      -3.539   0.933  -0.994  1.00  0.00    -0.228 NA
ATOM     12  S   UNL     1      -4.452  -0.348  -2.958  1.00  0.00    -0.105 S 
ATOM     13  C   UNL     1      -4.446   1.743  -1.602  1.00  0.00     0.125 A 
ATOM     14  C   UNL     1      -5.064   1.201  -2.723  1.00  0.00     0.088 A 
ENDBRANCH   6  10
ENDBRANCH   1   4
BRANCH   1  15
ATOM     15  C   UNL     1       1.400  -0.965   1.390  1.00  0.00     0.087 A 
ATOM     16  C   UNL     1       1.842  -0.241   2.505  1.00  0.00     0.022 A 
ATOM     17  C   UNL     1       1.882  -0.636   0.116  1.00  0.00     0.022 A 
ATOM     18  C   UNL     1       2.748   0.812   2.346  1.00  0.00     0.005 A 
ATOM     19  C   UNL     1       2.787   0.417  -0.044  1.00  0.00     0.005 A 
ATOM     20  C   UNL     1       3.213   1.159   1.068  1.00  0.00    -0.051 A 
ATOM     21  C   UNL     1       4.213   2.264   0.899  1.00  0.00     0.044 C 
ENDBRANCH   1  15
TORSDOF 3
