REMARK SMILES CCSc1nc(=N)c(CO)c[nH]1
REMARK SMILES IDX 12 1 11 2 8 3 6 4 5 5 4 6 3 8 2 9 1 10 9 11 10 12 7 14
REMARK H PARENT 12 7 10 13 7 15
ROOT
ATOM      1  N   UNL     1       0.175   1.092   0.747  1.00  0.00    -0.341 N 
ATOM      2  C   UNL     1      -1.067   1.223   0.211  1.00  0.00     0.094 A 
ATOM      3  C   UNL     1      -1.867   0.093  -0.005  1.00  0.00     0.038 A 
ATOM      4  C   UNL     1      -1.331  -1.165   0.328  1.00  0.00     0.154 A 
ATOM      5  N   UNL     1      -0.082  -1.245   0.860  1.00  0.00    -0.205 NA
ATOM      6  C   UNL     1       0.669  -0.134   1.067  1.00  0.00     0.167 A 
ATOM      7  H   UNL     1       0.753   1.946   0.911  1.00  0.00     0.168 HD
ENDROOT
BRANCH   6   8
ATOM      8  S   UNL     1       2.309  -0.292   1.777  1.00  0.00    -0.088 SA
BRANCH   8   9
ATOM      9  C   UNL     1       3.144  -0.613   0.184  1.00  0.00     0.075 C 
ATOM     10  C   UNL     1       3.378   0.681  -0.585  1.00  0.00     0.016 C 
ENDBRANCH   8   9
ENDBRANCH   6   8
BRANCH   3  11
ATOM     11  C   UNL     1      -3.230   0.238  -0.629  1.00  0.00     0.197 C 
BRANCH  11  12
ATOM     12  O   UNL     1      -3.148  -0.056  -1.995  1.00  0.00    -0.391 OA
ATOM     13  H   UNL     1      -4.069   0.041  -2.353  1.00  0.00     0.211 HD
ENDBRANCH  11  12
ENDBRANCH   3  11
BRANCH   4  14
ATOM     14  N   UNL     1      -2.014  -2.248   0.131  1.00  0.00    -0.282 NA
ATOM     15  H   UNL     1      -1.630  -3.189   0.371  1.00  0.00     0.189 HD
ENDBRANCH   4  14
TORSDOF 5
