REMARK SMILES Cc1cc2c(cc1[N+](=O)[O-])N[C@@H](C[NH2+]C(C)C)CC2
REMARK SMILES IDX 13 1 14 2 15 5 16 6 17 7 12 8 11 9 18 10 5 11 19 12 4 13
REMARK SMILES IDX 6 14 3 15 7 16 2 17 1 19 8 20 9 21 10 22
REMARK H PARENT 14 3 14 4 11 18
ROOT
ATOM      1  C   UNL     1      -2.001  -0.474   0.254  1.00  0.00     0.285 C 
ENDROOT
BRANCH   1   2
ATOM      2  N   UNL     1      -3.143   0.446   0.084  1.00  0.00    -0.343 N 
ATOM      3  H   UNL     1      -3.167   0.814  -0.896  1.00  0.00     0.346 HD
ATOM      4  H   UNL     1      -2.998   1.254   0.732  1.00  0.00     0.346 HD
BRANCH   2   5
ATOM      5  C   UNL     1      -4.435  -0.202   0.413  1.00  0.00     0.176 C 
ATOM      6  C   UNL     1      -4.955  -1.060  -0.756  1.00  0.00     0.075 C 
ATOM      7  C   UNL     1      -5.489   0.858   0.770  1.00  0.00     0.075 C 
ENDBRANCH   2   5
ENDBRANCH   1   2
BRANCH   1   8
ATOM      8  C   UNL     1      -0.685   0.114  -0.306  1.00  0.00     0.134 C 
ATOM      9  N   UNL     1       0.371  -0.906  -0.252  1.00  0.00    -0.376 N 
ATOM     10  C   UNL     1      -0.243   1.373   0.467  1.00  0.00     0.035 C 
ATOM     11  C   UNL     1       1.763  -0.560  -0.160  1.00  0.00     0.045 A 
ATOM     12  C   UNL     1       1.115   1.874  -0.037  1.00  0.00     0.040 C 
ATOM     13  C   UNL     1       2.150   0.781  -0.016  1.00  0.00    -0.024 A 
ATOM     14  C   UNL     1       2.738  -1.565  -0.198  1.00  0.00     0.111 A 
ATOM     15  C   UNL     1       3.510   1.106   0.068  1.00  0.00     0.016 A 
ATOM     16  C   UNL     1       4.106  -1.250  -0.112  1.00  0.00     0.274 A 
ATOM     17  C   UNL     1       4.494   0.103   0.047  1.00  0.00     0.027 A 
ATOM     18  H   UNL     1       0.117  -1.905  -0.428  1.00  0.00     0.161 HD
ATOM     19  C   UNL     1       5.938   0.504   0.193  1.00  0.00     0.052 C 
BRANCH  16  20
ATOM     20  N   UNL     1       5.076  -2.312  -0.188  1.00  0.00     0.063 N 
ATOM     21  O   UNL     1       4.784  -3.457   0.217  1.00  0.00    -0.258 OA
ATOM     22  O   UNL     1       6.263  -2.132  -0.858  1.00  0.00    -0.258 OA
ENDBRANCH  16  20
ENDBRANCH   1   8
TORSDOF 4
