REMARK SMILES O=C(Nc1ccc(Nc2ccccc2)cc1)Nc1ccccc1Cl
REMARK SMILES IDX 4 1 5 2 6 3 7 4 15 5 16 6 3 7 2 8 17 9 1 10 18 13 19 14
REMARK SMILES IDX 23 15 20 16 22 17 21 18 24 19 8 20 9 22 10 23 14 24 11 25
REMARK SMILES IDX 13 26 12 27
REMARK H PARENT 3 11 17 12 8 21
ROOT
ATOM      1  C   UNL     1       0.124  -0.393   0.195  1.00  0.00     0.043 A 
ATOM      2  C   UNL     1      -1.001  -0.785   0.934  1.00  0.00     0.028 A 
ATOM      3  C   UNL     1      -2.241  -0.180   0.714  1.00  0.00     0.028 A 
ATOM      4  C   UNL     1      -2.383   0.810  -0.273  1.00  0.00     0.039 A 
ATOM      5  C   UNL     1      -1.259   1.203  -1.012  1.00  0.00     0.028 A 
ATOM      6  C   UNL     1      -0.018   0.598  -0.792  1.00  0.00     0.028 A 
ENDROOT
BRANCH   1   7
ATOM      7  N   UNL     1       1.383  -1.048   0.426  1.00  0.00    -0.308 N 
ATOM      8  C   UNL     1       2.661  -0.407   0.299  1.00  0.00     0.323 C 
ATOM      9  N   UNL     1       3.857  -1.200   0.338  1.00  0.00    -0.306 N 
ATOM     10  O   UNL     1       2.737   0.850   0.222  1.00  0.00    -0.248 OA
ATOM     11  H   UNL     1       1.367  -2.031   0.783  1.00  0.00     0.171 HD
ATOM     12  H   UNL     1       3.771  -2.196   0.639  1.00  0.00     0.171 HD
BRANCH   9  13
ATOM     13  C   UNL     1       5.168  -0.680   0.048  1.00  0.00     0.061 A 
ATOM     14  C   UNL     1       5.357   0.237  -1.002  1.00  0.00     0.028 A 
ATOM     15  C   UNL     1       6.289  -1.127   0.778  1.00  0.00     0.064 A 
ATOM     16  C   UNL     1       6.635   0.718  -1.301  1.00  0.00     0.002 A 
ATOM     17  C   UNL     1       7.565  -0.638   0.472  1.00  0.00     0.023 A 
ATOM     18  C   UNL     1       7.736   0.284  -0.563  1.00  0.00     0.002 A 
ATOM     19  Cl  UNL     1       6.121  -2.270   2.105  1.00  0.00    -0.082 Cl
ENDBRANCH   9  13
ENDBRANCH   1   7
BRANCH   4  20
ATOM     20  N   UNL     1      -3.643   1.467  -0.499  1.00  0.00    -0.356 N 
ATOM     21  H   UNL     1      -3.623   2.465  -0.808  1.00  0.00     0.167 HD
BRANCH  20  22
ATOM     22  C   UNL     1      -4.927   0.842  -0.329  1.00  0.00     0.038 A 
ATOM     23  C   UNL     1      -6.032   1.626   0.039  1.00  0.00     0.026 A 
ATOM     24  C   UNL     1      -5.114  -0.528  -0.590  1.00  0.00     0.026 A 
ATOM     25  C   UNL     1      -7.295   1.044   0.183  1.00  0.00     0.002 A 
ATOM     26  C   UNL     1      -6.380  -1.106  -0.445  1.00  0.00     0.002 A 
ATOM     27  C   UNL     1      -7.468  -0.322  -0.055  1.00  0.00     0.000 A 
ENDBRANCH  20  22
ENDBRANCH   4  20
TORSDOF 4
