REMARK SMILES CCn1c2ccccc2c2c3ncc4cccn4c3ccc21
REMARK SMILES IDX 1 1 2 2 3 3 4 4 22 5 5 6 9 7 21 8 10 9 6 10 8 11 20 12 11 13
REMARK SMILES IDX 7 14 19 15 12 16 18 17 13 18 17 19 14 20 16 21 15 22
REMARK H PARENT
ROOT
ATOM      1  C   UNL     1      -3.741  -1.910  -0.826  1.00  0.00     0.027 C 
ATOM      2  C   UNL     1      -3.351  -1.310   0.519  1.00  0.00     0.119 C 
ENDROOT
BRANCH   2   3
ATOM      3  N   UNL     1      -2.229  -0.381   0.356  1.00  0.00    -0.341 N 
ATOM      4  C   UNL     1      -2.293   0.942   0.063  1.00  0.00     0.049 A 
ATOM      5  C   UNL     1      -0.904  -0.677   0.373  1.00  0.00     0.051 A 
ATOM      6  C   UNL     1      -3.438   1.728  -0.112  1.00  0.00     0.027 A 
ATOM      7  C   UNL     1      -1.029   1.484  -0.079  1.00  0.00     0.010 A 
ATOM      8  C   UNL     1      -0.312  -1.926   0.590  1.00  0.00     0.029 A 
ATOM      9  C   UNL     1      -0.137   0.446   0.120  1.00  0.00     0.035 A 
ATOM     10  C   UNL     1      -3.267   3.088  -0.424  1.00  0.00     0.002 A 
ATOM     11  C   UNL     1      -0.836   2.831  -0.391  1.00  0.00     0.011 A 
ATOM     12  C   UNL     1       1.090  -2.021   0.558  1.00  0.00     0.031 A 
ATOM     13  C   UNL     1       1.258   0.386   0.079  1.00  0.00     0.097 A 
ATOM     14  C   UNL     1      -1.975   3.636  -0.561  1.00  0.00     0.001 A 
ATOM     15  C   UNL     1       1.882  -0.873   0.305  1.00  0.00     0.072 A 
ATOM     16  N   UNL     1       2.023   1.490  -0.171  1.00  0.00    -0.252 NA
ATOM     17  N   UNL     1       3.246  -0.911   0.261  1.00  0.00    -0.314 N 
ATOM     18  C   UNL     1       3.383   1.419  -0.209  1.00  0.00     0.138 A 
ATOM     19  C   UNL     1       4.103  -1.939   0.433  1.00  0.00     0.092 A 
ATOM     20  C   UNL     1       3.987   0.184   0.015  1.00  0.00     0.064 A 
ATOM     21  C   UNL     1       5.404  -1.478   0.292  1.00  0.00     0.021 A 
ATOM     22  C   UNL     1       5.332  -0.119   0.024  1.00  0.00     0.030 A 
ENDBRANCH   2   3
TORSDOF 1
