REMARK SMILES CC(=O)Oc1c(C)c(OC(C)=O)c2c(c1C(C)=O)O[C@H]1CC(=O)C(C(C)=O)=C(O)[C@@]21C
REMARK SMILES IDX 5 1 6 2 7 3 8 4 13 5 14 6 15 7 19 8 20 9 21 10 22 11 23 12
REMARK SMILES IDX 24 13 28 14 30 15 31 16 4 17 2 18 1 19 3 20 16 21 17 22
REMARK SMILES IDX 18 23 9 24 10 25 11 26 12 27 29 28 25 30 26 31 27 32
REMARK H PARENT 29 29
ROOT
ATOM      1  C   UNL     1      -2.340  -0.649  -0.344  1.00  0.00     0.152 A 
ATOM      2  C   UNL     1      -2.047   0.691   0.017  1.00  0.00     0.036 A 
ATOM      3  C   UNL     1      -3.089   1.760  -0.201  1.00  0.00     0.052 C 
ATOM      4  C   UNL     1      -0.792   1.008   0.600  1.00  0.00     0.145 A 
ATOM      5  C   UNL     1       0.098  -0.037   0.891  1.00  0.00     0.055 A 
ATOM      6  C   UNL     1      -0.200  -1.326   0.539  1.00  0.00     0.142 A 
ATOM      7  C   UNL     1      -1.386  -1.673  -0.114  1.00  0.00     0.103 A 
ATOM      8  O   UNL     1       0.814  -2.194   0.881  1.00  0.00    -0.487 OA
ATOM      9  C   UNL     1       1.840  -1.516   1.597  1.00  0.00     0.199 C 
ATOM     10  C   UNL     1       3.208  -1.895   1.035  1.00  0.00     0.128 C 
ATOM     11  C   UNL     1       3.430  -1.202  -0.264  1.00  0.00     0.173 C 
ATOM     12  O   UNL     1       3.847  -1.847  -1.263  1.00  0.00    -0.294 OA
ATOM     13  C   UNL     1       3.203   0.251  -0.335  1.00  0.00     0.099 C 
ATOM     14  C   UNL     1       2.399   0.838   0.584  1.00  0.00     0.121 C 
ATOM     15  C   UNL     1       1.479   0.020   1.501  1.00  0.00     0.095 C 
ATOM     16  C   UNL     1       1.430   0.636   2.913  1.00  0.00     0.029 C 
ENDROOT
BRANCH   1  17
ATOM     17  O   UNL     1      -3.587  -0.940  -0.913  1.00  0.00    -0.425 OA
BRANCH  17  18
ATOM     18  C   UNL     1      -4.520  -1.794  -0.314  1.00  0.00     0.308 C 
ATOM     19  C   UNL     1      -5.785  -2.117  -1.032  1.00  0.00     0.139 C 
ATOM     20  O   UNL     1      -4.328  -2.247   0.848  1.00  0.00    -0.252 OA
ENDBRANCH  17  18
ENDBRANCH   1  17
BRANCH   7  21
ATOM     21  C   UNL     1      -1.586  -3.069  -0.568  1.00  0.00     0.167 C 
ATOM     22  C   UNL     1      -2.139  -3.385  -1.924  1.00  0.00     0.094 C 
ATOM     23  O   UNL     1      -1.258  -4.022   0.189  1.00  0.00    -0.294 OA
ENDBRANCH   7  21
BRANCH   4  24
ATOM     24  O   UNL     1      -0.438   2.326   0.915  1.00  0.00    -0.426 OA
BRANCH  24  25
ATOM     25  C   UNL     1      -0.372   3.354  -0.032  1.00  0.00     0.308 C 
ATOM     26  C   UNL     1      -0.122   4.752   0.420  1.00  0.00     0.139 C 
ATOM     27  O   UNL     1      -0.444   3.101  -1.266  1.00  0.00    -0.252 OA
ENDBRANCH  24  25
ENDBRANCH   4  24
BRANCH  14  28
ATOM     28  O   UNL     1       2.359   2.231   0.711  1.00  0.00    -0.510 OA
ATOM     29  H   UNL     1       3.008   2.858   0.254  1.00  0.00     0.293 HD
ENDBRANCH  14  28
BRANCH  13  30
ATOM     30  C   UNL     1       3.881   1.038  -1.393  1.00  0.00     0.166 C 
ATOM     31  C   UNL     1       5.298   0.754  -1.783  1.00  0.00     0.094 C 
ATOM     32  O   UNL     1       3.241   1.921  -2.026  1.00  0.00    -0.294 OA
ENDBRANCH  13  30
TORSDOF 7
