REMARK SMILES COc1ccc2[nH]c(-c3ccccc3)cc2c1
REMARK SMILES IDX 3 1 4 2 5 3 6 4 7 5 8 6 15 7 16 8 17 9 2 11 1 12 9 13 10 14
REMARK SMILES IDX 14 15 11 16 13 17 12 18
REMARK H PARENT 7 10
ROOT
ATOM      1  C   UNL     1       3.528  -0.029  -0.360  1.00  0.00     0.119 A 
ATOM      2  C   UNL     1       3.291  -0.900  -1.449  1.00  0.00     0.048 A 
ATOM      3  C   UNL     1       1.981  -1.248  -1.825  1.00  0.00     0.030 A 
ATOM      4  C   UNL     1       0.928  -0.707  -1.090  1.00  0.00     0.046 A 
ATOM      5  N   UNL     1      -0.386  -0.908  -1.281  1.00  0.00    -0.355 N 
ATOM      6  C   UNL     1      -1.016  -0.173  -0.329  1.00  0.00     0.046 A 
ATOM      7  C   UNL     1      -0.083   0.496   0.468  1.00  0.00     0.037 A 
ATOM      8  C   UNL     1       1.147   0.138  -0.037  1.00  0.00     0.004 A 
ATOM      9  C   UNL     1       2.430   0.502   0.363  1.00  0.00     0.056 A 
ATOM     10  H   UNL     1      -0.818  -1.494  -2.029  1.00  0.00     0.167 HD
ENDROOT
BRANCH   1  11
ATOM     11  O   UNL     1       4.856   0.279  -0.033  1.00  0.00    -0.497 OA
ATOM     12  C   UNL     1       5.241   1.139   1.034  1.00  0.00     0.278 C 
ENDBRANCH   1  11
BRANCH   6  13
ATOM     13  C   UNL     1      -2.491  -0.103  -0.173  1.00  0.00    -0.002 A 
ATOM     14  C   UNL     1      -3.316  -1.117  -0.696  1.00  0.00     0.010 A 
ATOM     15  C   UNL     1      -3.091   0.978   0.502  1.00  0.00     0.010 A 
ATOM     16  C   UNL     1      -4.705  -1.048  -0.548  1.00  0.00     0.001 A 
ATOM     17  C   UNL     1      -4.480   1.042   0.646  1.00  0.00     0.001 A 
ATOM     18  C   UNL     1      -5.286   0.030   0.122  1.00  0.00     0.000 A 
ENDBRANCH   6  13
TORSDOF 2
