REMARK SMILES CCCOc1ccc(-c2nc(-c3ccc(N)cc3)cs2)cc1
REMARK SMILES IDX 5 1 6 2 7 3 8 4 21 5 22 6 4 7 3 8 2 9 1 10 9 11 10 12 20 13
REMARK SMILES IDX 11 14 19 15 12 16 13 17 18 18 14 19 17 20 15 21 16 22
REMARK H PARENT 16 23 16 24
ROOT
ATOM      1  C   UNL     1       3.391   0.077  -0.999  1.00  0.00     0.119 A 
ATOM      2  C   UNL     1       2.223   0.743  -1.385  1.00  0.00     0.047 A 
ATOM      3  C   UNL     1       0.979   0.344  -0.890  1.00  0.00     0.015 A 
ATOM      4  C   UNL     1       0.879  -0.736   0.003  1.00  0.00     0.011 A 
ATOM      5  C   UNL     1       2.052  -1.409   0.387  1.00  0.00     0.015 A 
ATOM      6  C   UNL     1       3.296  -1.009  -0.109  1.00  0.00     0.047 A 
ENDROOT
BRANCH   1   7
ATOM      7  O   UNL     1       4.613   0.523  -1.530  1.00  0.00    -0.494 OA
BRANCH   7   8
ATOM      8  C   UNL     1       5.906   0.049  -1.151  1.00  0.00     0.229 C 
BRANCH   8   9
ATOM      9  C   UNL     1       6.317   0.587   0.225  1.00  0.00     0.038 C 
ATOM     10  C   UNL     1       6.400   2.112   0.235  1.00  0.00     0.007 C 
ENDBRANCH   8   9
ENDBRANCH   7   8
ENDBRANCH   1   7
BRANCH   4  11
ATOM     11  C   UNL     1      -0.444  -1.151   0.523  1.00  0.00     0.124 A 
ATOM     12  N   UNL     1      -1.603  -0.541   0.186  1.00  0.00    -0.236 NA
ATOM     13  S   UNL     1      -0.732  -2.414   1.598  1.00  0.00    -0.122 S 
ATOM     14  C   UNL     1      -2.691  -1.098   0.789  1.00  0.00     0.082 A 
ATOM     15  C   UNL     1      -2.394  -2.174   1.631  1.00  0.00     0.096 A 
BRANCH  14  16
ATOM     16  C   UNL     1      -4.060  -0.567   0.554  1.00  0.00     0.001 A 
ATOM     17  C   UNL     1      -4.228   0.672  -0.092  1.00  0.00     0.012 A 
ATOM     18  C   UNL     1      -5.208  -1.281   0.955  1.00  0.00     0.012 A 
ATOM     19  C   UNL     1      -5.506   1.188  -0.324  1.00  0.00     0.026 A 
ATOM     20  C   UNL     1      -6.485  -0.762   0.721  1.00  0.00     0.026 A 
ATOM     21  C   UNL     1      -6.640   0.474   0.082  1.00  0.00     0.031 A 
BRANCH  21  22
ATOM     22  N   UNL     1      -7.948   1.003  -0.156  1.00  0.00    -0.399 N 
ATOM     23  H   UNL     1      -8.073   1.924  -0.632  1.00  0.00     0.156 HD
ATOM     24  H   UNL     1      -8.799   0.477   0.143  1.00  0.00     0.156 HD
ENDBRANCH  21  22
ENDBRANCH  14  16
ENDBRANCH   4  11
TORSDOF 6
