REMARK SMILES Oc1nc2ccccc2s1
REMARK SMILES IDX 1 1 2 3 3 4 10 5 4 6 9 7 5 8 8 9 6 10 7 11
REMARK H PARENT 1 2
ROOT
ATOM      1  O   UNL     1       3.810  -0.449   0.134  1.00  0.00    -0.486 OA
ATOM      2  H   UNL     1       4.345   0.410   0.097  1.00  0.00     0.296 HD
ENDROOT
BRANCH   1   3
ATOM      3  C   UNL     1       2.421  -0.420   0.094  1.00  0.00     0.271 A 
ATOM      4  N   UNL     1       1.706   0.727   0.004  1.00  0.00    -0.203 NA
ATOM      5  S   UNL     1       1.447  -1.803   0.150  1.00  0.00    -0.077 S 
ATOM      6  C   UNL     1       0.376   0.458  -0.017  1.00  0.00     0.085 A 
ATOM      7  C   UNL     1       0.043  -0.886   0.055  1.00  0.00     0.058 A 
ATOM      8  C   UNL     1      -0.624   1.429  -0.104  1.00  0.00     0.030 A 
ATOM      9  C   UNL     1      -1.280  -1.322   0.044  1.00  0.00     0.021 A 
ATOM     10  C   UNL     1      -1.968   1.015  -0.117  1.00  0.00     0.002 A 
ATOM     11  C   UNL     1      -2.294  -0.354  -0.043  1.00  0.00     0.002 A 
ENDBRANCH   1   3
TORSDOF 1
