REMARK SMILES Oc1nc2c(ncn2-c2ccccc2)c(=S)[nH]1
REMARK SMILES IDX 17 1 2 2 3 3 4 4 5 5 6 6 7 7 8 8 15 9 16 10 1 12 9 14 10 15
REMARK SMILES IDX 14 16 11 17 13 18 12 19
REMARK H PARENT 17 11 1 13
ROOT
ATOM      1  N   UNL     1       3.700   0.470  -0.044  1.00  0.00    -0.299 N 
ATOM      2  C   UNL     1       2.727   1.154   0.647  1.00  0.00     0.294 A 
ATOM      3  N   UNL     1       1.411   0.816   0.503  1.00  0.00    -0.177 NA
ATOM      4  C   UNL     1       1.095  -0.194  -0.343  1.00  0.00     0.173 A 
ATOM      5  C   UNL     1       2.035  -0.891  -1.021  1.00  0.00     0.143 A 
ATOM      6  N   UNL     1       1.464  -1.875  -1.742  1.00  0.00    -0.231 NA
ATOM      7  C   UNL     1       0.141  -1.729  -1.456  1.00  0.00     0.207 A 
ATOM      8  N   UNL     1      -0.119  -0.704  -0.600  1.00  0.00    -0.283 N 
ATOM      9  C   UNL     1       3.379  -0.563  -0.884  1.00  0.00     0.137 A 
ATOM     10  S   UNL     1       4.545  -1.387  -1.688  1.00  0.00    -0.058 S 
ATOM     11  H   UNL     1       4.702   0.742   0.081  1.00  0.00     0.172 HD
ENDROOT
BRANCH   2  12
ATOM     12  O   UNL     1       3.074   2.195   1.503  1.00  0.00    -0.480 OA
ATOM     13  H   UNL     1       4.040   2.469   1.633  1.00  0.00     0.296 HD
ENDBRANCH   2  12
BRANCH   8  14
ATOM     14  C   UNL     1      -1.402  -0.293  -0.089  1.00  0.00     0.049 A 
ATOM     15  C   UNL     1      -2.417  -1.244   0.126  1.00  0.00     0.027 A 
ATOM     16  C   UNL     1      -1.667   1.061   0.187  1.00  0.00     0.027 A 
ATOM     17  C   UNL     1      -3.664  -0.848   0.618  1.00  0.00     0.002 A 
ATOM     18  C   UNL     1      -2.917   1.451   0.678  1.00  0.00     0.002 A 
ATOM     19  C   UNL     1      -3.914   0.498   0.895  1.00  0.00     0.000 A 
ENDBRANCH   8  14
TORSDOF 2
