REMARK SMILES CCCNc1cc(=S)nc(N)[nH]1
REMARK SMILES IDX 4 1 5 3 12 4 10 5 6 6 9 7 7 8 8 10 11 11 3 14 2 15 1 16
REMARK H PARENT 4 2 12 9 11 12 11 13
ROOT
ATOM      1  N   UNL     1      -0.441   0.953  -0.056  1.00  0.00    -0.371 N 
ATOM      2  H   UNL     1      -0.746   1.953  -0.005  1.00  0.00     0.162 HD
ENDROOT
BRANCH   1   3
ATOM      3  C   UNL     1       0.961   0.663   0.090  1.00  0.00     0.108 A 
ATOM      4  N   UNL     1       1.433  -0.619   0.035  1.00  0.00    -0.313 N 
ATOM      5  C   UNL     1       2.763  -0.883   0.174  1.00  0.00     0.200 A 
ATOM      6  C   UNL     1       1.862   1.716   0.293  1.00  0.00     0.085 A 
ATOM      7  N   UNL     1       3.641   0.135   0.371  1.00  0.00    -0.204 NA
ATOM      8  C   UNL     1       3.219   1.422   0.433  1.00  0.00     0.133 A 
ATOM      9  H   UNL     1       0.781  -1.420  -0.115  1.00  0.00     0.171 HD
ATOM     10  S   UNL     1       4.306   2.620   0.671  1.00  0.00    -0.058 S 
BRANCH   5  11
ATOM     11  N   UNL     1       3.242  -2.227   0.115  1.00  0.00    -0.369 N 
ATOM     12  H   UNL     1       2.583  -3.023  -0.036  1.00  0.00     0.159 HD
ATOM     13  H   UNL     1       4.261  -2.428   0.221  1.00  0.00     0.159 HD
ENDBRANCH   5  11
ENDBRANCH   1   3
BRANCH   1  14
ATOM     14  C   UNL     1      -1.453  -0.083  -0.271  1.00  0.00     0.114 C 
BRANCH  14  15
ATOM     15  C   UNL     1      -2.851   0.533  -0.388  1.00  0.00     0.018 C 
ATOM     16  C   UNL     1      -3.911  -0.541  -0.612  1.00  0.00     0.006 C 
ENDBRANCH  14  15
ENDBRANCH   1  14
TORSDOF 4
