REMARK SMILES c1ccc2c(c1)Sc1ccccc1N2C[C@@H]1C[N@H+]2CC[C@@H]1CC2
REMARK SMILES IDX 17 1 18 2 23 3 19 4 16 5 21 6 22 7 20 8 15 10 14 11 4 12
REMARK SMILES IDX 13 13 3 14 5 15 12 16 8 17 2 18 7 19 6 20 11 21 9 22 1 23
REMARK SMILES IDX 10 24
REMARK H PARENT 18 9
ROOT
ATOM      1  C   UNL     1       2.245  -1.040   1.181  1.00  0.00     0.267 C 
ATOM      2  N   UNL     1       3.572  -0.565   0.717  1.00  0.00    -0.335 N 
ATOM      3  C   UNL     1       3.741  -0.865  -0.725  1.00  0.00     0.262 C 
ATOM      4  C   UNL     1       3.679   0.898   0.941  1.00  0.00     0.262 C 
ATOM      5  C   UNL     1       1.089  -0.392   0.349  1.00  0.00     0.068 C 
ATOM      6  C   UNL     1       1.718   0.641  -0.628  1.00  0.00     0.010 C 
ATOM      7  C   UNL     1       2.672  -0.127  -1.569  1.00  0.00     0.066 C 
ATOM      8  C   UNL     1       2.579   1.657   0.158  1.00  0.00     0.066 C 
ATOM      9  H   UNL     1       4.323  -1.052   1.261  1.00  0.00     0.348 HD
ENDROOT
BRANCH   5  10
ATOM     10  C   UNL     1      -0.055   0.143   1.276  1.00  0.00     0.132 C 
BRANCH  10  11
ATOM     11  N   UNL     1      -1.395   0.084   0.645  1.00  0.00    -0.339 N 
ATOM     12  C   UNL     1      -1.986   1.270   0.022  1.00  0.00     0.055 A 
ATOM     13  C   UNL     1      -2.099  -1.199   0.563  1.00  0.00     0.055 A 
ATOM     14  C   UNL     1      -1.216   2.403  -0.330  1.00  0.00     0.027 A 
ATOM     15  C   UNL     1      -3.357   1.289  -0.315  1.00  0.00     0.036 A 
ATOM     16  C   UNL     1      -1.433  -2.438   0.732  1.00  0.00     0.027 A 
ATOM     17  C   UNL     1      -3.473  -1.240   0.243  1.00  0.00     0.036 A 
ATOM     18  C   UNL     1      -1.755   3.425  -1.116  1.00  0.00     0.002 A 
ATOM     19  S   UNL     1      -4.491   0.194   0.508  1.00  0.00    -0.086 SA
ATOM     20  C   UNL     1      -3.886   2.300  -1.126  1.00  0.00     0.017 A 
ATOM     21  C   UNL     1      -2.076  -3.645   0.442  1.00  0.00     0.002 A 
ATOM     22  C   UNL     1      -4.104  -2.449  -0.073  1.00  0.00     0.017 A 
ATOM     23  C   UNL     1      -3.079   3.357  -1.542  1.00  0.00     0.001 A 
ATOM     24  C   UNL     1      -3.399  -3.648   0.008  1.00  0.00     0.001 A 
ENDBRANCH  10  11
ENDBRANCH   5  10
TORSDOF 2
