REMARK SMILES NC(=[NH2+])NC(=S)Nc1ccc(Cl)cc1
REMARK SMILES IDX 5 1 6 2 4 3 2 4 1 5 3 9 7 12 8 14 9 15 14 16 10 17 13 18
REMARK SMILES IDX 11 19 12 20
REMARK H PARENT 1 6 1 7 4 8 3 10 3 11 7 13
ROOT
ATOM      1  C   UNL     1      -0.891  -0.029  -0.666  1.00  0.00     0.237 C 
ATOM      2  S   UNL     1      -0.885  -1.667  -0.836  1.00  0.00    -0.023 S 
ENDROOT
BRANCH   1   3
ATOM      3  N   UNL     1      -2.123   0.696  -0.807  1.00  0.00    -0.221 N 
ATOM      4  C   UNL     1      -3.408   0.207  -0.387  1.00  0.00     0.345 C 
ATOM      5  N   UNL     1      -4.581   0.654  -1.071  1.00  0.00    -0.291 N 
ATOM      6  H   UNL     1      -5.531   0.341  -0.772  1.00  0.00     0.256 HD
ATOM      7  H   UNL     1      -4.500   1.297  -1.890  1.00  0.00     0.256 HD
ATOM      8  H   UNL     1      -2.088   1.638  -1.257  1.00  0.00     0.269 HD
BRANCH   4   9
ATOM      9  N   UNL     1      -3.521  -0.574   0.646  1.00  0.00    -0.291 N 
ATOM     10  H   UNL     1      -4.458  -0.911   0.960  1.00  0.00     0.256 HD
ATOM     11  H   UNL     1      -2.690  -0.856   1.211  1.00  0.00     0.256 HD
ENDBRANCH   4   9
ENDBRANCH   1   3
BRANCH   1  12
ATOM     12  N   UNL     1       0.347   0.696  -0.732  1.00  0.00    -0.320 N 
ATOM     13  H   UNL     1       0.337   1.634  -1.194  1.00  0.00     0.170 HD
BRANCH  12  14
ATOM     14  C   UNL     1       1.598   0.220  -0.205  1.00  0.00     0.041 A 
ATOM     15  C   UNL     1       1.646  -0.600   0.938  1.00  0.00     0.027 A 
ATOM     16  C   UNL     1       2.799   0.632  -0.801  1.00  0.00     0.027 A 
ATOM     17  C   UNL     1       2.876  -1.028   1.448  1.00  0.00     0.022 A 
ATOM     18  C   UNL     1       4.028   0.202  -0.290  1.00  0.00     0.022 A 
ATOM     19  C   UNL     1       4.067  -0.631   0.832  1.00  0.00     0.041 A 
ATOM     20  Cl  UNL     1       5.609  -1.168   1.474  1.00  0.00    -0.084 Cl
ENDBRANCH  12  14
ENDBRANCH   1  12
TORSDOF 4
