REMARK SMILES Cc1nc2nccc-2c(NCc2ccccc2)[nH]1
REMARK SMILES IDX 10 1 9 3 18 4 2 5 3 6 8 7 4 8 7 9 5 10 6 11 1 13 11 14 12 15
REMARK SMILES IDX 13 16 17 17 14 18 16 19 15 20
REMARK H PARENT 10 2 18 12
ROOT
ATOM      1  N   UNL     1       0.150   0.214  -0.052  1.00  0.00    -0.367 N 
ATOM      2  H   UNL     1       0.672   1.110   0.085  1.00  0.00     0.162 HD
ENDROOT
BRANCH   1   3
ATOM      3  C   UNL     1      -1.289   0.247  -0.004  1.00  0.00     0.116 A 
ATOM      4  N   UNL     1      -2.049  -0.885  -0.175  1.00  0.00    -0.330 N 
ATOM      5  C   UNL     1      -3.426  -0.859  -0.130  1.00  0.00     0.106 A 
ATOM      6  N   UNL     1      -4.100   0.312   0.089  1.00  0.00    -0.215 NA
ATOM      7  C   UNL     1      -1.966   1.439   0.218  1.00  0.00     0.061 A 
ATOM      8  C   UNL     1      -3.385   1.443   0.261  1.00  0.00     0.164 A 
ATOM      9  C   UNL     1      -1.582   2.741   0.429  1.00  0.00     0.036 A 
ATOM     10  N   UNL     1      -3.875   2.672   0.484  1.00  0.00    -0.236 NA
ATOM     11  C   UNL     1      -2.771   3.458   0.586  1.00  0.00     0.114 A 
ATOM     12  H   UNL     1      -1.583  -1.804  -0.345  1.00  0.00     0.169 HD
ATOM     13  C   UNL     1      -4.201  -2.124  -0.322  1.00  0.00     0.087 C 
ENDBRANCH   1   3
BRANCH   1  14
ATOM     14  C   UNL     1       0.909  -1.015  -0.284  1.00  0.00     0.150 C 
BRANCH  14  15
ATOM     15  C   UNL     1       2.388  -0.734  -0.280  1.00  0.00    -0.029 A 
ATOM     16  C   UNL     1       3.042  -0.365  -1.467  1.00  0.00     0.005 A 
ATOM     17  C   UNL     1       3.112  -0.772   0.923  1.00  0.00     0.005 A 
ATOM     18  C   UNL     1       4.408  -0.067  -1.454  1.00  0.00     0.000 A 
ATOM     19  C   UNL     1       4.478  -0.473   0.931  1.00  0.00     0.000 A 
ATOM     20  C   UNL     1       5.126  -0.124  -0.257  1.00  0.00     0.000 A 
ENDBRANCH  14  15
ENDBRANCH   1  14
TORSDOF 3
