REMARK SMILES CC[C@@H](CO)NC(=O)[C@H]1C=C2c3cccc4[nH]cc(c34)C[C@H]2[N@@H+](C)C1
REMARK SMILES IDX 3 1 6 2 7 3 8 4 9 6 22 7 23 8 21 9 11 10 25 11 19 12 10 13
REMARK SMILES IDX 12 14 18 15 20 16 13 17 17 18 16 19 14 20 15 21 24 22 2 25
REMARK SMILES IDX 1 26 4 27 5 28
REMARK H PARENT 6 5 23 23 17 24 5 29
ROOT
ATOM      1  C   UNL     1       3.953  -0.579   0.184  1.00  0.00     0.107 C 
ENDROOT
BRANCH   1   2
ATOM      2  N   UNL     1       2.559  -0.233  -0.109  1.00  0.00    -0.350 N 
ATOM      3  C   UNL     1       2.121   0.172  -1.415  1.00  0.00     0.232 C 
ATOM      4  O   UNL     1       2.928   0.174  -2.385  1.00  0.00    -0.274 OA
ATOM      5  H   UNL     1       1.890  -0.141   0.690  1.00  0.00     0.163 HD
BRANCH   3   6
ATOM      6  C   UNL     1       0.702   0.627  -1.633  1.00  0.00     0.156 C 
ATOM      7  C   UNL     1      -1.922   1.365  -1.051  1.00  0.00     0.219 C 
ATOM      8  N   UNL     1      -0.899   2.176  -0.339  1.00  0.00    -0.330 N 
ATOM      9  C   UNL     1      -3.392   1.761  -0.644  1.00  0.00     0.108 C 
ATOM     10  C   UNL     1      -1.550  -0.124  -0.950  1.00  0.00     0.015 C 
ATOM     11  C   UNL     1       0.453   2.013  -0.951  1.00  0.00     0.280 C 
ATOM     12  C   UNL     1      -4.111   0.677   0.093  1.00  0.00    -0.016 A 
ATOM     13  C   UNL     1      -0.270  -0.439  -1.190  1.00  0.00     0.002 C 
ATOM     14  C   UNL     1      -2.518  -1.113  -0.402  1.00  0.00    -0.007 A 
ATOM     15  C   UNL     1      -5.382   0.664   0.661  1.00  0.00     0.087 A 
ATOM     16  C   UNL     1      -3.694  -0.612   0.108  1.00  0.00     0.011 A 
ATOM     17  C   UNL     1      -2.336  -2.516  -0.313  1.00  0.00     0.009 A 
ATOM     18  N   UNL     1      -5.711  -0.600   1.034  1.00  0.00    -0.361 N 
ATOM     19  C   UNL     1      -4.665  -1.371   0.680  1.00  0.00     0.046 A 
ATOM     20  C   UNL     1      -3.337  -3.328   0.281  1.00  0.00     0.003 A 
ATOM     21  C   UNL     1      -4.524  -2.753   0.788  1.00  0.00     0.027 A 
ATOM     22  C   UNL     1      -0.852   1.881   1.112  1.00  0.00     0.333 C 
ATOM     23  H   UNL     1      -1.160   3.186  -0.435  1.00  0.00     0.348 HD
ATOM     24  H   UNL     1      -6.609  -0.913   1.467  1.00  0.00     0.166 HD
ENDBRANCH   3   6
ENDBRANCH   1   2
BRANCH   1  25
ATOM     25  C   UNL     1       4.709   0.698   0.603  1.00  0.00     0.024 C 
ATOM     26  C   UNL     1       6.223   0.497   0.677  1.00  0.00     0.006 C 
ENDBRANCH   1  25
BRANCH   1  27
ATOM     27  C   UNL     1       3.997  -1.661   1.280  1.00  0.00     0.180 C 
BRANCH  27  28
ATOM     28  O   UNL     1       3.215  -2.765   0.912  1.00  0.00    -0.394 OA
ATOM     29  H   UNL     1       3.717  -3.246   0.203  1.00  0.00     0.210 HD
ENDBRANCH  27  28
ENDBRANCH   1  27
TORSDOF 5
