REMARK SMILES CCNc1nc(Cl)nc(-c2cn(-c3ccccc3)c3ccccc23)n1
REMARK SMILES IDX 4 1 5 2 6 3 7 4 8 5 9 6 25 7 3 8 2 10 1 11 10 12 11 13 24 14
REMARK SMILES IDX 12 15 23 16 19 17 22 18 20 19 21 20 13 21 14 22 18 23 15 24
REMARK SMILES IDX 17 25 16 26
REMARK H PARENT 3 9
ROOT
ATOM      1  C   UNL     1       3.581   0.697  -0.031  1.00  0.00     0.227 A 
ATOM      2  N   UNL     1       3.722   1.968  -0.489  1.00  0.00    -0.182 NA
ATOM      3  C   UNL     1       2.627   2.697  -0.820  1.00  0.00     0.227 A 
ATOM      4  Cl  UNL     1       2.810   4.334  -1.410  1.00  0.00    -0.041 Cl
ATOM      5  N   UNL     1       1.389   2.156  -0.693  1.00  0.00    -0.198 NA
ATOM      6  C   UNL     1       1.239   0.886  -0.236  1.00  0.00     0.168 A 
ATOM      7  N   UNL     1       2.340   0.162   0.094  1.00  0.00    -0.193 NA
ENDROOT
BRANCH   1   8
ATOM      8  N   UNL     1       4.729  -0.083   0.322  1.00  0.00    -0.354 N 
ATOM      9  H   UNL     1       4.578  -1.057   0.671  1.00  0.00     0.163 HD
BRANCH   8  10
ATOM     10  C   UNL     1       6.086   0.452   0.204  1.00  0.00     0.112 C 
ATOM     11  C   UNL     1       7.120  -0.580   0.643  1.00  0.00     0.027 C 
ENDBRANCH   8  10
ENDBRANCH   1   8
BRANCH   6  12
ATOM     12  C   UNL     1      -0.113   0.310  -0.102  1.00  0.00     0.045 A 
ATOM     13  C   UNL     1      -1.303   0.967  -0.403  1.00  0.00     0.104 A 
ATOM     14  C   UNL     1      -0.485  -0.959   0.327  1.00  0.00     0.011 A 
ATOM     15  N   UNL     1      -2.365   0.161  -0.167  1.00  0.00    -0.316 N 
ATOM     16  C   UNL     1       0.272  -2.062   0.735  1.00  0.00     0.011 A 
ATOM     17  C   UNL     1      -1.860  -1.013   0.271  1.00  0.00     0.054 A 
ATOM     18  C   UNL     1      -0.409  -3.242   1.078  1.00  0.00     0.001 A 
ATOM     19  C   UNL     1      -2.556  -2.186   0.585  1.00  0.00     0.027 A 
ATOM     20  C   UNL     1      -1.815  -3.306   0.999  1.00  0.00     0.002 A 
BRANCH  15  21
ATOM     21  C   UNL     1      -3.744   0.525  -0.350  1.00  0.00     0.046 A 
ATOM     22  C   UNL     1      -4.689   0.279   0.661  1.00  0.00     0.026 A 
ATOM     23  C   UNL     1      -4.151   1.176  -1.526  1.00  0.00     0.026 A 
ATOM     24  C   UNL     1      -6.024   0.653   0.483  1.00  0.00     0.002 A 
ATOM     25  C   UNL     1      -5.487   1.549  -1.700  1.00  0.00     0.002 A 
ATOM     26  C   UNL     1      -6.424   1.285  -0.697  1.00  0.00     0.000 A 
ENDBRANCH  15  21
ENDBRANCH   6  12
TORSDOF 4
