REMARK SMILES O=[N+]([O-])c1ccc(/C=[N+](\[O-])CCO)o1
REMARK SMILES IDX 9 1 10 2 8 3 7 4 4 5 5 6 14 7 6 8 2 9 1 10 3 11 11 12 12 13
REMARK SMILES IDX 13 14
REMARK H PARENT 13 15
ROOT
ATOM      1  N   UNL     1      -1.108   0.672  -0.072  1.00  0.00    -0.206 N 
ATOM      2  O   UNL     1      -0.595   1.518  -1.030  1.00  0.00    -0.624 OA
ENDROOT
BRANCH   1   3
ATOM      3  C   UNL     1      -0.343  -0.191   0.541  1.00  0.00     0.362 C 
BRANCH   3   4
ATOM      4  C   UNL     1       1.106  -0.298   0.288  1.00  0.00     0.198 A 
ATOM      5  C   UNL     1       3.041   0.070  -0.510  1.00  0.00     0.433 A 
ATOM      6  C   UNL     1       3.207  -0.965   0.389  1.00  0.00     0.134 A 
ATOM      7  O   UNL     1       1.785   0.450  -0.552  1.00  0.00    -0.395 OA
ATOM      8  C   UNL     1       1.950  -1.202   0.907  1.00  0.00     0.065 A 
BRANCH   5   9
ATOM      9  N   UNL     1       4.074   0.665  -1.298  1.00  0.00     0.102 N 
ATOM     10  O   UNL     1       5.252   0.259  -1.212  1.00  0.00    -0.256 OA
ATOM     11  O   UNL     1       3.773   1.694  -2.159  1.00  0.00    -0.256 OA
ENDBRANCH   5   9
ENDBRANCH   3   4
ENDBRANCH   1   3
BRANCH   1  12
ATOM     12  C   UNL     1      -2.547   0.718   0.194  1.00  0.00     0.391 C 
BRANCH  12  13
ATOM     13  C   UNL     1      -3.283  -0.284  -0.696  1.00  0.00     0.229 C 
BRANCH  13  14
ATOM     14  O   UNL     1      -4.660  -0.244  -0.436  1.00  0.00    -0.390 OA
ATOM     15  H   UNL     1      -5.010   0.572  -0.881  1.00  0.00     0.210 HD
ENDBRANCH  13  14
ENDBRANCH  12  13
ENDBRANCH   1  12
TORSDOF 6
