REMARK SMILES Cc1cc(O)c(C(C)C)cc1NC(=O)Nc1cccc2ccccc12
REMARK SMILES IDX 1 1 2 2 3 3 4 4 6 5 10 6 11 7 12 8 13 9 15 10 14 12 16 14
REMARK SMILES IDX 17 15 25 16 18 17 24 18 20 19 19 20 23 21 21 22 22 23 5 24
REMARK SMILES IDX 7 26 8 27 9 28
REMARK H PARENT 12 11 15 13 5 25
ROOT
ATOM      1  C   UNL     1      -1.629  -3.440  -1.479  1.00  0.00     0.047 C 
ATOM      2  C   UNL     1      -2.210  -2.191  -0.872  1.00  0.00    -0.024 A 
ATOM      3  C   UNL     1      -3.468  -2.245  -0.255  1.00  0.00     0.052 A 
ATOM      4  C   UNL     1      -4.039  -1.103   0.320  1.00  0.00     0.119 A 
ATOM      5  C   UNL     1      -3.352   0.130   0.273  1.00  0.00    -0.002 A 
ATOM      6  C   UNL     1      -2.096   0.182  -0.360  1.00  0.00     0.034 A 
ATOM      7  C   UNL     1      -1.514  -0.966  -0.923  1.00  0.00     0.046 A 
ENDROOT
BRANCH   7   8
ATOM      8  N   UNL     1      -0.243  -0.875  -1.592  1.00  0.00    -0.307 N 
ATOM      9  C   UNL     1       0.873  -0.138  -1.071  1.00  0.00     0.323 C 
ATOM     10  N   UNL     1       2.049   0.029  -1.874  1.00  0.00    -0.307 N 
ATOM     11  H   UNL     1      -0.094  -1.427  -2.466  1.00  0.00     0.171 HD
ATOM     12  O   UNL     1       0.830   0.344   0.095  1.00  0.00    -0.248 OA
ATOM     13  H   UNL     1       1.985  -0.191  -2.893  1.00  0.00     0.171 HD
BRANCH  10  14
ATOM     14  C   UNL     1       3.199   0.751  -1.408  1.00  0.00     0.050 A 
ATOM     15  C   UNL     1       3.560   1.932  -2.070  1.00  0.00     0.027 A 
ATOM     16  C   UNL     1       3.976   0.296  -0.314  1.00  0.00     0.005 A 
ATOM     17  C   UNL     1       4.647   2.689  -1.632  1.00  0.00     0.003 A 
ATOM     18  C   UNL     1       3.708  -0.928   0.331  1.00  0.00     0.011 A 
ATOM     19  C   UNL     1       5.077   1.077   0.128  1.00  0.00    -0.016 A 
ATOM     20  C   UNL     1       5.398   2.271  -0.533  1.00  0.00     0.009 A 
ATOM     21  C   UNL     1       4.489  -1.346   1.411  1.00  0.00     0.001 A 
ATOM     22  C   UNL     1       5.851   0.644   1.217  1.00  0.00     0.009 A 
ATOM     23  C   UNL     1       5.552  -0.560   1.857  1.00  0.00     0.001 A 
ENDBRANCH  10  14
ENDBRANCH   7   8
BRANCH   4  24
ATOM     24  O   UNL     1      -5.288  -1.199   0.931  1.00  0.00    -0.508 OA
ATOM     25  H   UNL     1      -5.796  -2.075   0.974  1.00  0.00     0.293 HD
ENDBRANCH   4  24
BRANCH   5  26
ATOM     26  C   UNL     1      -3.927   1.408   0.871  1.00  0.00     0.017 C 
ATOM     27  C   UNL     1      -5.226   1.829   0.174  1.00  0.00     0.012 C 
ATOM     28  C   UNL     1      -4.112   1.293   2.389  1.00  0.00     0.012 C 
ENDBRANCH   5  26
TORSDOF 4
