REMARK SMILES O=C(Nc1nnc(C(F)(F)F)s1)c1c(F)cccc1F
REMARK SMILES IDX 4 1 5 2 6 3 7 4 12 5 3 6 2 7 1 8 13 10 14 11 19 12 16 13
REMARK SMILES IDX 18 14 17 15 15 16 20 17 8 18 9 19 10 20 11 21
REMARK H PARENT 3 9
ROOT
ATOM      1  C   UNL     1       1.714   0.609  -0.709  1.00  0.00     0.212 A 
ATOM      2  N   UNL     1       2.348   1.127  -1.784  1.00  0.00    -0.119 NA
ATOM      3  N   UNL     1       3.674   1.015  -1.719  1.00  0.00    -0.132 NA
ATOM      4  C   UNL     1       4.107   0.412  -0.589  1.00  0.00     0.223 A 
ATOM      5  S   UNL     1       2.813  -0.052   0.388  1.00  0.00    -0.070 S 
ENDROOT
BRANCH   1   6
ATOM      6  N   UNL     1       0.284   0.582  -0.596  1.00  0.00    -0.296 N 
ATOM      7  C   UNL     1      -0.428   0.193   0.590  1.00  0.00     0.263 C 
ATOM      8  O   UNL     1       0.162   0.173   1.704  1.00  0.00    -0.269 OA
ATOM      9  H   UNL     1      -0.267   0.903  -1.423  1.00  0.00     0.172 HD
BRANCH   7  10
ATOM     10  C   UNL     1      -1.871  -0.140   0.526  1.00  0.00     0.111 A 
ATOM     11  C   UNL     1      -2.728   0.199   1.594  1.00  0.00     0.138 A 
ATOM     12  C   UNL     1      -2.406  -0.815  -0.590  1.00  0.00     0.138 A 
ATOM     13  C   UNL     1      -4.089  -0.116   1.534  1.00  0.00     0.040 A 
ATOM     14  C   UNL     1      -3.769  -1.126  -0.639  1.00  0.00     0.040 A 
ATOM     15  C   UNL     1      -4.609  -0.775   0.419  1.00  0.00     0.006 A 
ATOM     16  F   UNL     1      -2.256   0.858   2.683  1.00  0.00    -0.206 F 
ATOM     17  F   UNL     1      -1.609  -1.216  -1.613  1.00  0.00    -0.206 F 
ENDBRANCH   7  10
ENDBRANCH   1   6
BRANCH   4  18
ATOM     18  C   UNL     1       5.541   0.095  -0.316  1.00  0.00     0.445 C 
ATOM     19  F   UNL     1       5.811  -1.197  -0.724  1.00  0.00    -0.164 F 
ATOM     20  F   UNL     1       6.359   0.971  -1.007  1.00  0.00    -0.164 F 
ATOM     21  F   UNL     1       5.801   0.210   1.037  1.00  0.00    -0.164 F 
ENDBRANCH   4  18
TORSDOF 3
