REMARK SMILES COc1ccccc1NC(=O)c1cc2ccccc2cc1O
REMARK SMILES IDX 9 1 10 2 11 3 8 5 3 6 4 7 5 8 7 9 6 10 2 11 1 12 12 13 13 14
REMARK SMILES IDX 21 15 14 16 20 17 15 18 19 19 16 20 18 21 17 22 22 23
REMARK H PARENT 9 4 22 24
ROOT
ATOM      1  N   UNL     1      -1.212  -0.122  -1.208  1.00  0.00    -0.319 N 
ATOM      2  C   UNL     1      -0.358   0.587  -0.297  1.00  0.00     0.259 C 
ATOM      3  O   UNL     1      -0.782   1.628   0.277  1.00  0.00    -0.269 OA
ATOM      4  H   UNL     1      -0.762  -0.653  -1.988  1.00  0.00     0.170 HD
ENDROOT
BRANCH   1   5
ATOM      5  C   UNL     1      -2.637   0.059  -1.249  1.00  0.00     0.084 A 
ATOM      6  C   UNL     1      -3.412   0.044  -0.069  1.00  0.00     0.142 A 
ATOM      7  C   UNL     1      -4.807   0.229  -0.160  1.00  0.00     0.048 A 
ATOM      8  C   UNL     1      -5.418   0.395  -1.404  1.00  0.00     0.004 A 
ATOM      9  C   UNL     1      -3.269   0.200  -2.493  1.00  0.00     0.030 A 
ATOM     10  C   UNL     1      -4.652   0.374  -2.570  1.00  0.00     0.002 A 
BRANCH   6  11
ATOM     11  O   UNL     1      -2.776  -0.179   1.163  1.00  0.00    -0.495 OA
ATOM     12  C   UNL     1      -3.440  -0.218   2.422  1.00  0.00     0.278 C 
ENDBRANCH   6  11
ENDBRANCH   1   5
BRANCH   2  13
ATOM     13  C   UNL     1       1.038   0.146  -0.067  1.00  0.00     0.082 A 
ATOM     14  C   UNL     1       2.028   1.108   0.203  1.00  0.00     0.026 A 
ATOM     15  C   UNL     1       1.393  -1.220  -0.091  1.00  0.00     0.128 A 
ATOM     16  C   UNL     1       3.359   0.726   0.416  1.00  0.00    -0.017 A 
ATOM     17  C   UNL     1       2.725  -1.604   0.116  1.00  0.00     0.055 A 
ATOM     18  C   UNL     1       4.348   1.689   0.675  1.00  0.00     0.009 A 
ATOM     19  C   UNL     1       3.712  -0.642   0.368  1.00  0.00    -0.015 A 
ATOM     20  C   UNL     1       5.673   1.296   0.883  1.00  0.00     0.001 A 
ATOM     21  C   UNL     1       5.046  -1.024   0.580  1.00  0.00     0.009 A 
ATOM     22  C   UNL     1       6.021  -0.056   0.836  1.00  0.00     0.001 A 
BRANCH  15  23
ATOM     23  O   UNL     1       0.420  -2.200  -0.296  1.00  0.00    -0.507 OA
ATOM     24  H   UNL     1       0.652  -3.186  -0.310  1.00  0.00     0.293 HD
ENDBRANCH  15  23
ENDBRANCH   2  13
TORSDOF 4
