REMARK SMILES COc1ccc(Nc2cc(Cl)ccc2C(=O)[O-])cn1
REMARK SMILES IDX 7 1 8 3 14 4 13 5 12 6 9 7 10 8 11 9 15 10 16 11 17 12 6 13
REMARK SMILES IDX 5 14 18 15 4 16 19 17 3 18 2 19 1 20
REMARK H PARENT 7 2
ROOT
ATOM      1  N   UNL     1      -0.674  -0.570  -1.112  1.00  0.00    -0.354 N 
ATOM      2  H   UNL     1      -0.753  -1.081  -2.021  1.00  0.00     0.167 HD
ENDROOT
BRANCH   1   3
ATOM      3  C   UNL     1      -1.891  -0.194  -0.447  1.00  0.00     0.049 A 
ATOM      4  C   UNL     1      -2.949  -1.123  -0.272  1.00  0.00     0.021 A 
ATOM      5  C   UNL     1      -4.158  -0.680   0.296  1.00  0.00     0.014 A 
ATOM      6  C   UNL     1      -4.316   0.649   0.693  1.00  0.00     0.021 A 
ATOM      7  C   UNL     1      -2.071   1.143  -0.049  1.00  0.00     0.047 A 
ATOM      8  C   UNL     1      -3.274   1.559   0.524  1.00  0.00     0.043 A 
ATOM      9  Cl  UNL     1      -3.479   3.231   1.017  1.00  0.00    -0.084 Cl
BRANCH   4  10
ATOM     10  C   UNL     1      -2.815  -2.558  -0.630  1.00  0.00     0.074 C 
ATOM     11  O   UNL     1      -1.682  -3.089  -0.771  1.00  0.00    -0.545 OA
ATOM     12  O   UNL     1      -3.948  -3.349  -0.778  1.00  0.00    -0.545 OA
ENDBRANCH   4  10
ENDBRANCH   1   3
BRANCH   1  13
ATOM     13  C   UNL     1       0.638  -0.216  -0.640  1.00  0.00     0.057 A 
ATOM     14  C   UNL     1       0.878   0.099   0.708  1.00  0.00     0.033 A 
ATOM     15  C   UNL     1       1.724  -0.226  -1.527  1.00  0.00     0.141 A 
ATOM     16  C   UNL     1       2.168   0.419   1.133  1.00  0.00     0.070 A 
ATOM     17  N   UNL     1       2.971   0.089  -1.089  1.00  0.00    -0.220 NA
ATOM     18  C   UNL     1       3.218   0.412   0.211  1.00  0.00     0.213 A 
BRANCH  18  19
ATOM     19  O   UNL     1       4.509   0.734   0.638  1.00  0.00    -0.481 OA
ATOM     20  C   UNL     1       5.629   0.748  -0.240  1.00  0.00     0.280 C 
ENDBRANCH  18  19
ENDBRANCH   1  13
TORSDOF 4
