REMARK SMILES C=C(O)c1c(OC(C)=O)c(C)c(OC(C)=O)c2c1O[C@@H]1CC(=O)[C@@H](C(C)=O)C(=O)[C@@]21C
REMARK SMILES IDX 4 1 5 2 10 3 11 4 12 5 17 6 18 7 19 8 20 9 21 10 22 11 23 12
REMARK SMILES IDX 24 13 28 14 29 15 30 16 31 17 2 18 1 19 3 20 6 22 7 23 8 24
REMARK SMILES IDX 9 25 13 26 14 27 15 28 16 29 25 30 26 31 27 32
REMARK H PARENT 3 21
ROOT
ATOM      1  C   UNL     1      -1.822  -1.649   0.230  1.00  0.00     0.101 A 
ATOM      2  C   UNL     1      -2.701  -0.542   0.171  1.00  0.00     0.152 A 
ATOM      3  C   UNL     1      -2.196   0.787   0.273  1.00  0.00     0.036 A 
ATOM      4  C   UNL     1      -3.150   1.948   0.408  1.00  0.00     0.052 C 
ATOM      5  C   UNL     1      -0.793   1.006   0.328  1.00  0.00     0.145 A 
ATOM      6  C   UNL     1       0.057  -0.105   0.322  1.00  0.00     0.055 A 
ATOM      7  C   UNL     1      -0.451  -1.390   0.327  1.00  0.00     0.142 A 
ATOM      8  O   UNL     1       0.563  -2.332   0.456  1.00  0.00    -0.487 OA
ATOM      9  C   UNL     1       1.780  -1.648   0.208  1.00  0.00     0.198 C 
ATOM     10  C   UNL     1       3.062  -2.223   0.792  1.00  0.00     0.123 C 
ATOM     11  C   UNL     1       4.201  -1.243   0.529  1.00  0.00     0.154 C 
ATOM     12  O   UNL     1       5.333  -1.575   0.844  1.00  0.00    -0.298 OA
ATOM     13  C   UNL     1       3.992   0.139  -0.119  1.00  0.00     0.190 C 
ATOM     14  C   UNL     1       2.544   0.633  -0.078  1.00  0.00     0.165 C 
ATOM     15  O   UNL     1       2.246   1.706  -0.579  1.00  0.00    -0.297 OA
ATOM     16  C   UNL     1       1.522  -0.196   0.659  1.00  0.00     0.097 C 
ATOM     17  C   UNL     1       1.672   0.027   2.184  1.00  0.00     0.029 C 
ENDROOT
BRANCH   1  18
ATOM     18  C   UNL     1      -2.348  -3.035   0.206  1.00  0.00     0.123 C 
ATOM     19  C   UNL     1      -1.746  -3.998  -0.500  1.00  0.00     0.059 C 
BRANCH  18  20
ATOM     20  O   UNL     1      -3.507  -3.329   0.926  1.00  0.00    -0.508 OA
ATOM     21  H   UNL     1      -3.913  -4.258   0.936  1.00  0.00     0.293 HD
ENDBRANCH  18  20
ENDBRANCH   1  18
BRANCH   2  22
ATOM     22  O   UNL     1      -4.075  -0.779   0.034  1.00  0.00    -0.425 OA
BRANCH  22  23
ATOM     23  C   UNL     1      -4.830  -0.314  -1.049  1.00  0.00     0.308 C 
ATOM     24  C   UNL     1      -6.307  -0.507  -1.049  1.00  0.00     0.139 C 
ATOM     25  O   UNL     1      -4.267   0.203  -2.052  1.00  0.00    -0.252 OA
ENDBRANCH  22  23
ENDBRANCH   2  22
BRANCH   5  26
ATOM     26  O   UNL     1      -0.248   2.289   0.451  1.00  0.00    -0.426 OA
BRANCH  26  27
ATOM     27  C   UNL     1      -0.433   3.299  -0.499  1.00  0.00     0.308 C 
ATOM     28  C   UNL     1       0.027   4.684  -0.198  1.00  0.00     0.139 C 
ATOM     29  O   UNL     1      -0.988   3.053  -1.605  1.00  0.00    -0.252 OA
ENDBRANCH  26  27
ENDBRANCH   5  26
BRANCH  13  30
ATOM     30  C   UNL     1       4.487   0.106  -1.546  1.00  0.00     0.147 C 
ATOM     31  C   UNL     1       5.609   0.992  -2.004  1.00  0.00     0.089 C 
ATOM     32  O   UNL     1       3.966  -0.651  -2.352  1.00  0.00    -0.299 OA
ENDBRANCH  13  30
TORSDOF 7
