REMARK SMILES N=c1nc(Nc2ccccc2)[nH][nH]1
REMARK SMILES IDX 12 1 13 2 2 3 3 4 4 5 5 8 6 10 7 11 11 12 8 13 10 14 9 15
REMARK SMILES IDX 1 16
REMARK H PARENT 12 6 13 7 5 9 1 17
ROOT
ATOM      1  N   UNL     1       2.551  -1.150  -0.950  1.00  0.00    -0.267 N 
ATOM      2  N   UNL     1       3.579  -0.689  -0.264  1.00  0.00    -0.266 N 
ATOM      3  C   UNL     1       3.085   0.213   0.600  1.00  0.00     0.237 A 
ATOM      4  N   UNL     1       1.746   0.361   0.500  1.00  0.00    -0.176 NA
ATOM      5  C   UNL     1       1.456  -0.525  -0.481  1.00  0.00     0.222 A 
ATOM      6  H   UNL     1       2.604  -1.862  -1.712  1.00  0.00     0.191 HD
ATOM      7  H   UNL     1       4.574  -0.980  -0.393  1.00  0.00     0.191 HD
ENDROOT
BRANCH   5   8
ATOM      8  N   UNL     1       0.143  -0.729  -1.022  1.00  0.00    -0.325 N 
ATOM      9  H   UNL     1       0.073  -1.221  -1.941  1.00  0.00     0.170 HD
BRANCH   8  10
ATOM     10  C   UNL     1      -1.058  -0.193  -0.442  1.00  0.00     0.041 A 
ATOM     11  C   UNL     1      -1.216  -0.085   0.953  1.00  0.00     0.026 A 
ATOM     12  C   UNL     1      -2.122   0.176  -1.280  1.00  0.00     0.026 A 
ATOM     13  C   UNL     1      -2.405   0.418   1.491  1.00  0.00     0.002 A 
ATOM     14  C   UNL     1      -3.308   0.680  -0.738  1.00  0.00     0.002 A 
ATOM     15  C   UNL     1      -3.448   0.805   0.646  1.00  0.00     0.000 A 
ENDBRANCH   8  10
ENDBRANCH   5   8
BRANCH   3  16
ATOM     16  N   UNL     1       3.818   0.875   1.435  1.00  0.00    -0.266 NA
ATOM     17  H   UNL     1       3.396   1.571   2.090  1.00  0.00     0.191 HD
ENDBRANCH   3  16
TORSDOF 3
