REMARK SMILES c1ccc2[nH]c(-c3ccncc3)nc2c1
REMARK SMILES IDX 1 1 2 2 3 3 4 4 5 5 6 6 13 7 14 8 15 9 7 11 8 12 12 13 9 14
REMARK SMILES IDX 11 15 10 16
REMARK H PARENT 5 10
ROOT
ATOM      1  C   UNL     1      -3.976  -0.956  -0.270  1.00  0.00     0.002 A 
ATOM      2  C   UNL     1      -4.054   0.344   0.283  1.00  0.00     0.002 A 
ATOM      3  C   UNL     1      -2.882   1.075   0.553  1.00  0.00     0.028 A 
ATOM      4  C   UNL     1      -1.663   0.469   0.255  1.00  0.00     0.066 A 
ATOM      5  N   UNL     1      -0.429   0.959   0.421  1.00  0.00    -0.338 N 
ATOM      6  C   UNL     1       0.384  -0.036  -0.028  1.00  0.00     0.138 A 
ATOM      7  N   UNL     1      -0.301  -1.128  -0.468  1.00  0.00    -0.229 NA
ATOM      8  C   UNL     1      -1.585  -0.781  -0.277  1.00  0.00     0.089 A 
ATOM      9  C   UNL     1      -2.724  -1.533  -0.557  1.00  0.00     0.030 A 
ATOM     10  H   UNL     1      -0.176   1.894   0.808  1.00  0.00     0.168 HD
ENDROOT
BRANCH   6  11
ATOM     11  C   UNL     1       1.867   0.037  -0.048  1.00  0.00     0.020 A 
ATOM     12  C   UNL     1       2.555   1.176   0.411  1.00  0.00     0.032 A 
ATOM     13  C   UNL     1       2.616  -1.049  -0.533  1.00  0.00     0.032 A 
ATOM     14  C   UNL     1       3.952   1.203   0.375  1.00  0.00     0.111 A 
ATOM     15  C   UNL     1       4.011  -0.979  -0.551  1.00  0.00     0.111 A 
ATOM     16  N   UNL     1       4.644   0.135  -0.101  1.00  0.00    -0.265 NA
ENDBRANCH   6  11
TORSDOF 1
