REMARK SMILES Nc1ccccc1C(=O)Nc1ccc(Cl)cc1Cl
REMARK SMILES IDX 2 1 3 2 4 3 5 4 6 5 7 6 1 7 8 10 10 11 9 12 11 14 12 15
REMARK SMILES IDX 17 16 13 17 16 18 14 19 18 20 15 21
REMARK H PARENT 1 8 1 9 10 13
ROOT
ATOM      1  C   UNL     1       2.725   1.093  -0.015  1.00  0.00     0.044 A 
ATOM      2  C   UNL     1       4.052   0.919   0.411  1.00  0.00     0.026 A 
ATOM      3  C   UNL     1       4.379  -0.081   1.328  1.00  0.00     0.002 A 
ATOM      4  C   UNL     1       3.386  -0.920   1.831  1.00  0.00     0.001 A 
ATOM      5  C   UNL     1       2.059  -0.753   1.429  1.00  0.00     0.016 A 
ATOM      6  C   UNL     1       1.708   0.258   0.515  1.00  0.00     0.063 A 
ENDROOT
BRANCH   1   7
ATOM      7  N   UNL     1       2.447   2.080  -1.017  1.00  0.00    -0.398 N 
ATOM      8  H   UNL     1       1.547   2.098  -1.544  1.00  0.00     0.156 HD
ATOM      9  H   UNL     1       3.192   2.744  -1.325  1.00  0.00     0.156 HD
ENDBRANCH   1   7
BRANCH   6  10
ATOM     10  C   UNL     1       0.278   0.438   0.179  1.00  0.00     0.257 C 
ATOM     11  N   UNL     1      -0.566  -0.706  -0.024  1.00  0.00    -0.321 N 
ATOM     12  O   UNL     1      -0.204   1.601   0.090  1.00  0.00    -0.269 OA
ATOM     13  H   UNL     1      -0.113  -1.620  -0.252  1.00  0.00     0.170 HD
BRANCH  11  14
ATOM     14  C   UNL     1      -1.985  -0.597  -0.196  1.00  0.00     0.060 A 
ATOM     15  C   UNL     1      -2.573  -1.116  -1.359  1.00  0.00     0.029 A 
ATOM     16  C   UNL     1      -2.806  -0.019   0.795  1.00  0.00     0.066 A 
ATOM     17  C   UNL     1      -3.953  -1.026  -1.556  1.00  0.00     0.023 A 
ATOM     18  C   UNL     1      -4.189   0.068   0.591  1.00  0.00     0.043 A 
ATOM     19  C   UNL     1      -4.761  -0.428  -0.585  1.00  0.00     0.042 A 
ATOM     20  Cl  UNL     1      -2.148   0.529   2.333  1.00  0.00    -0.082 Cl
ATOM     21  Cl  UNL     1      -6.494  -0.318  -0.832  1.00  0.00    -0.084 Cl
ENDBRANCH  11  14
ENDBRANCH   6  10
TORSDOF 3
