REMARK SMILES C=CC[N@H+]1CC[C@]23c4c5ccc(O)c4O[C@H]2C(O)=CC[C@@]3(O)[C@H]1C5
REMARK SMILES IDX 17 1 19 2 20 3 21 4 23 5 24 6 9 7 10 8 11 9 12 10 14 11 8 12
REMARK SMILES IDX 7 13 6 14 5 15 4 16 16 17 15 18 18 20 22 22 13 24 3 26 2 27
REMARK SMILES IDX 1 28
REMARK H PARENT 4 19 18 21 22 23 13 25
ROOT
ATOM      1  C   UNL     1      -3.513   0.337  -0.412  1.00  0.00     0.130 C 
ATOM      2  C   UNL     1      -3.332  -0.970  -0.796  1.00  0.00     0.022 C 
ATOM      3  C   UNL     1      -1.957  -1.499  -0.954  1.00  0.00     0.073 C 
ATOM      4  C   UNL     1      -1.054  -1.023   0.186  1.00  0.00     0.134 C 
ATOM      5  C   UNL     1       0.468  -1.436   0.108  1.00  0.00     0.222 C 
ATOM      6  C   UNL     1       1.317  -0.672  -1.010  1.00  0.00     0.104 C 
ATOM      7  C   UNL     1       0.531   0.318  -1.780  1.00  0.00    -0.034 A 
ATOM      8  C   UNL     1       0.708   0.529  -3.170  1.00  0.00     0.008 A 
ATOM      9  C   UNL     1      -0.279   1.300  -3.893  1.00  0.00     0.050 A 
ATOM     10  C   UNL     1      -1.225   2.064  -3.149  1.00  0.00     0.158 A 
ATOM     11  C   UNL     1      -1.303   1.845  -1.745  1.00  0.00     0.166 A 
ATOM     12  C   UNL     1      -0.454   0.999  -1.111  1.00  0.00     0.015 A 
ATOM     13  C   UNL     1      -1.020   0.543   0.225  1.00  0.00     0.084 C 
ATOM     14  C   UNL     1      -0.051   1.037   1.371  1.00  0.00     0.081 C 
ATOM     15  C   UNL     1       0.645  -0.075   2.224  1.00  0.00     0.264 C 
ATOM     16  N   UNL     1       1.078  -1.325   1.479  1.00  0.00    -0.327 N 
ATOM     17  C   UNL     1      -2.435   1.238   0.134  1.00  0.00     0.252 C 
ATOM     18  O   UNL     1      -2.299   2.258  -0.883  1.00  0.00    -0.477 OA
ATOM     19  H   UNL     1       0.639  -2.129   2.009  1.00  0.00     0.348 HD
ENDROOT
BRANCH   1  20
ATOM     20  O   UNL     1      -4.753   0.919  -0.741  1.00  0.00    -0.509 OA
ATOM     21  H   UNL     1      -4.739   1.761  -1.332  1.00  0.00     0.293 HD
ENDBRANCH   1  20
BRANCH   4  22
ATOM     22  O   UNL     1      -1.676  -1.493   1.357  1.00  0.00    -0.382 OA
ATOM     23  H   UNL     1      -1.524  -2.490   1.382  1.00  0.00     0.211 HD
ENDBRANCH   4  22
BRANCH  10  24
ATOM     24  O   UNL     1      -2.072   2.953  -3.777  1.00  0.00    -0.504 OA
ATOM     25  H   UNL     1      -3.061   2.995  -3.536  1.00  0.00     0.293 HD
ENDBRANCH  10  24
BRANCH  16  26
ATOM     26  C   UNL     1       2.573  -1.493   1.512  1.00  0.00     0.290 C 
BRANCH  26  27
ATOM     27  C   UNL     1       3.053  -2.287   2.747  1.00  0.00     0.025 C 
ATOM     28  C   UNL     1       4.145  -3.054   2.715  1.00  0.00     0.010 C 
ENDBRANCH  26  27
ENDBRANCH  16  26
TORSDOF 5
