REMARK SMILES c1ccc(-c2nc[nH]c2-c2ccccc2)cc1
REMARK SMILES IDX 5 1 6 2 7 3 8 4 9 5 4 7 1 8 2 9 17 10 3 11 16 12 10 13 11 14
REMARK SMILES IDX 15 15 12 16 14 17 13 18
REMARK H PARENT 8 6
ROOT
ATOM      1  C   UNL     1      -0.748  -1.514   0.158  1.00  0.00     0.096 A 
ATOM      2  N   UNL     1      -1.173  -2.785   0.323  1.00  0.00    -0.236 NA
ATOM      3  C   UNL     1      -0.039  -3.509   0.429  1.00  0.00     0.197 A 
ATOM      4  N   UNL     1       1.072  -2.756   0.338  1.00  0.00    -0.344 N 
ATOM      5  C   UNL     1       0.642  -1.494   0.178  1.00  0.00     0.073 A 
ATOM      6  H   UNL     1       2.059  -3.088   0.422  1.00  0.00     0.168 HD
ENDROOT
BRANCH   1   7
ATOM      7  C   UNL     1      -1.674  -0.386  -0.075  1.00  0.00     0.002 A 
ATOM      8  C   UNL     1      -3.475   1.721  -0.530  1.00  0.00     0.000 A 
ATOM      9  C   UNL     1      -3.799   0.707   0.376  1.00  0.00     0.001 A 
ATOM     10  C   UNL     1      -2.262   1.678  -1.221  1.00  0.00     0.001 A 
ATOM     11  C   UNL     1      -2.907  -0.346   0.598  1.00  0.00     0.010 A 
ATOM     12  C   UNL     1      -1.367   0.627  -1.002  1.00  0.00     0.010 A 
ENDBRANCH   1   7
BRANCH   5  13
ATOM     13  C   UNL     1       1.544  -0.322   0.146  1.00  0.00     0.000 A 
ATOM     14  C   UNL     1       2.757  -0.392  -0.559  1.00  0.00     0.010 A 
ATOM     15  C   UNL     1       1.227   0.853   0.850  1.00  0.00     0.010 A 
ATOM     16  C   UNL     1       3.624   0.705  -0.584  1.00  0.00     0.001 A 
ATOM     17  C   UNL     1       2.095   1.948   0.822  1.00  0.00     0.001 A 
ATOM     18  C   UNL     1       3.291   1.876   0.103  1.00  0.00     0.000 A 
ENDBRANCH   5  13
TORSDOF 2
