REMARK SMILES [S-]c1nnc(-c2ccccc2)c(-c2ccccc2)n1
REMARK SMILES IDX 2 1 1 2 3 3 19 4 4 5 12 6 5 7 13 8 14 9 18 10 15 11 17 12
REMARK SMILES IDX 16 13 6 14 7 15 11 16 8 17 10 18 9 19
REMARK H PARENT
ROOT
ATOM      1  C   UNL     1      -0.950   3.854   0.453  1.00  0.00     0.031 A 
ATOM      2  S   UNL     1      -1.964   5.334   0.570  1.00  0.00    -0.738 S 
ATOM      3  N   UNL     1       0.399   3.942   0.553  1.00  0.00    -0.160 NA
ATOM      4  N   UNL     1      -1.531   2.642   0.280  1.00  0.00    -0.253 NA
ATOM      5  N   UNL     1       1.161   2.854   0.458  1.00  0.00    -0.148 NA
ATOM      6  C   UNL     1      -0.785   1.509   0.196  1.00  0.00     0.098 A 
ATOM      7  C   UNL     1       0.623   1.620   0.264  1.00  0.00     0.119 A 
ENDROOT
BRANCH   6   8
ATOM      8  C   UNL     1      -1.493   0.213   0.086  1.00  0.00     0.002 A 
ATOM      9  C   UNL     1      -1.175  -0.860   0.939  1.00  0.00     0.010 A 
ATOM     10  C   UNL     1      -2.531   0.062  -0.848  1.00  0.00     0.010 A 
ATOM     11  C   UNL     1      -1.861  -2.073   0.831  1.00  0.00     0.001 A 
ATOM     12  C   UNL     1      -3.216  -1.154  -0.951  1.00  0.00     0.001 A 
ATOM     13  C   UNL     1      -2.878  -2.221  -0.115  1.00  0.00     0.000 A 
ENDBRANCH   6   8
BRANCH   7  14
ATOM     14  C   UNL     1       1.541   0.471   0.088  1.00  0.00     0.004 A 
ATOM     15  C   UNL     1       1.390  -0.417  -0.992  1.00  0.00     0.010 A 
ATOM     16  C   UNL     1       2.610   0.289   0.981  1.00  0.00     0.010 A 
ATOM     17  C   UNL     1       2.272  -1.490  -1.152  1.00  0.00     0.001 A 
ATOM     18  C   UNL     1       3.491  -0.785   0.817  1.00  0.00     0.001 A 
ATOM     19  C   UNL     1       3.320  -1.676  -0.246  1.00  0.00     0.000 A 
ENDBRANCH   7  14
TORSDOF 2
