REMARK SMILES CCCNc1cc(S)nc(N)n1
REMARK SMILES IDX 4 1 5 3 7 4 6 5 9 6 10 7 12 8 8 9 11 11 3 14 2 15 1 16
REMARK H PARENT 4 2 8 10 11 12 11 13
ROOT
ATOM      1  N   UNL     1       0.798   0.319   0.226  1.00  0.00    -0.370 N 
ATOM      2  H   UNL     1       1.300   1.197   0.494  1.00  0.00     0.162 HD
ENDROOT
BRANCH   1   3
ATOM      3  C   UNL     1      -0.634   0.341   0.151  1.00  0.00     0.132 A 
ATOM      4  C   UNL     1      -2.728   1.506   0.331  1.00  0.00     0.101 A 
ATOM      5  C   UNL     1      -1.335   1.523   0.414  1.00  0.00     0.082 A 
ATOM      6  N   UNL     1      -3.373   0.358   0.002  1.00  0.00    -0.207 NA
ATOM      7  C   UNL     1      -2.681  -0.784  -0.251  1.00  0.00     0.223 A 
ATOM      8  N   UNL     1      -1.324  -0.786  -0.175  1.00  0.00    -0.196 NA
BRANCH   4   9
ATOM      9  S   UNL     1      -3.669   2.990   0.657  1.00  0.00    -0.124 SA
ATOM     10  H   UNL     1      -3.774   2.687   2.028  1.00  0.00     0.109 HD
ENDBRANCH   4   9
BRANCH   7  11
ATOM     11  N   UNL     1      -3.378  -1.979  -0.596  1.00  0.00    -0.368 N 
ATOM     12  H   UNL     1      -4.420  -1.985  -0.656  1.00  0.00     0.159 HD
ATOM     13  H   UNL     1      -2.852  -2.860  -0.791  1.00  0.00     0.159 HD
ENDBRANCH   7  11
ENDBRANCH   1   3
BRANCH   1  14
ATOM     14  C   UNL     1       1.559  -0.904  -0.039  1.00  0.00     0.114 C 
BRANCH  14  15
ATOM     15  C   UNL     1       3.071  -0.662   0.052  1.00  0.00     0.018 C 
ATOM     16  C   UNL     1       3.588   0.187  -1.108  1.00  0.00     0.006 C 
ENDBRANCH  14  15
ENDBRANCH   1  14
TORSDOF 5
