REMARK SMILES O=C([O-])[C@@H]1CCC(=O)N1C(=O)OCc1ccccc1
REMARK SMILES IDX 10 1 11 2 9 3 4 4 5 5 6 6 7 7 8 8 2 9 1 10 3 11 12 12 13 13
REMARK SMILES IDX 14 14 15 15 19 16 16 17 18 18 17 19
REMARK H PARENT
ROOT
ATOM      1  C   UNL     1      -0.912   0.738   0.855  1.00  0.00     0.417 C 
ATOM      2  O   UNL     1      -1.106   1.442   1.884  1.00  0.00    -0.224 OA
ENDROOT
BRANCH   1   3
ATOM      3  N   UNL     1      -2.032   0.274   0.086  1.00  0.00    -0.239 N 
ATOM      4  C   UNL     1      -3.427   0.556   0.394  1.00  0.00     0.143 C 
ATOM      5  C   UNL     1      -4.235   0.068  -0.834  1.00  0.00     0.042 C 
ATOM      6  C   UNL     1      -3.276  -0.750  -1.711  1.00  0.00     0.103 C 
ATOM      7  C   UNL     1      -1.954  -0.479  -1.112  1.00  0.00     0.232 C 
ATOM      8  O   UNL     1      -0.869  -0.887  -1.607  1.00  0.00    -0.274 OA
BRANCH   4   9
ATOM      9  C   UNL     1      -3.841  -0.175   1.640  1.00  0.00     0.065 C 
ATOM     10  O   UNL     1      -4.486   0.425   2.540  1.00  0.00    -0.548 OA
ATOM     11  O   UNL     1      -3.544  -1.524   1.793  1.00  0.00    -0.548 OA
ENDBRANCH   4   9
ENDBRANCH   1   3
BRANCH   1  12
ATOM     12  O   UNL     1       0.389   0.409   0.464  1.00  0.00    -0.444 OA
BRANCH  12  13
ATOM     13  C   UNL     1       1.541   0.836   1.182  1.00  0.00     0.270 C 
BRANCH  13  14
ATOM     14  C   UNL     1       2.770   0.312   0.499  1.00  0.00    -0.011 A 
ATOM     15  C   UNL     1       3.278  -0.955   0.829  1.00  0.00     0.007 A 
ATOM     16  C   UNL     1       3.381   1.054  -0.525  1.00  0.00     0.007 A 
ATOM     17  C   UNL     1       4.400  -1.459   0.163  1.00  0.00     0.000 A 
ATOM     18  C   UNL     1       4.503   0.546  -1.189  1.00  0.00     0.000 A 
ATOM     19  C   UNL     1       5.013  -0.708  -0.843  1.00  0.00     0.000 A 
ENDBRANCH  13  14
ENDBRANCH  12  13
ENDBRANCH   1  12
TORSDOF 5
