REMARK SMILES Nc1ccccc1S[C@@H]1CC(=O)N(c2ccccc2Cl)C1=O
REMARK SMILES IDX 8 1 7 2 2 3 3 4 4 5 6 6 5 7 1 8 9 11 10 12 21 13 11 14 13 15
REMARK SMILES IDX 22 16 12 17 14 18 15 19 19 20 16 21 18 22 17 23 20 24
REMARK H PARENT 1 9 1 10
ROOT
ATOM      1  S   UNL     1       1.539  -0.783   1.126  1.00  0.00    -0.110 SA
ENDROOT
BRANCH   1   2
ATOM      2  C   UNL     1       3.102  -0.257   0.402  1.00  0.00     0.031 A 
ATOM      3  C   UNL     1       3.790  -1.053  -0.541  1.00  0.00     0.045 A 
ATOM      4  C   UNL     1       5.006  -0.593  -1.072  1.00  0.00     0.026 A 
ATOM      5  C   UNL     1       5.535   0.636  -0.669  1.00  0.00     0.002 A 
ATOM      6  C   UNL     1       3.647   0.971   0.804  1.00  0.00     0.017 A 
ATOM      7  C   UNL     1       4.857   1.416   0.268  1.00  0.00     0.001 A 
BRANCH   3   8
ATOM      8  N   UNL     1       3.273  -2.318  -0.974  1.00  0.00    -0.398 N 
ATOM      9  H   UNL     1       2.372  -2.701  -0.614  1.00  0.00     0.156 HD
ATOM     10  H   UNL     1       3.794  -2.892  -1.674  1.00  0.00     0.156 HD
ENDBRANCH   3   8
ENDBRANCH   1   2
BRANCH   1  11
ATOM     11  C   UNL     1       0.514  -0.095  -0.224  1.00  0.00     0.151 C 
ATOM     12  C   UNL     1       0.257   1.420  -0.041  1.00  0.00     0.126 C 
ATOM     13  C   UNL     1      -0.852  -0.695  -0.175  1.00  0.00     0.247 C 
ATOM     14  C   UNL     1      -1.226   1.518   0.095  1.00  0.00     0.235 C 
ATOM     15  N   UNL     1      -1.874   0.258   0.062  1.00  0.00    -0.248 N 
ATOM     16  O   UNL     1      -1.086  -1.915  -0.387  1.00  0.00    -0.273 OA
ATOM     17  O   UNL     1      -1.844   2.606   0.240  1.00  0.00    -0.274 OA
BRANCH  15  18
ATOM     18  C   UNL     1      -3.286   0.030  -0.063  1.00  0.00     0.070 A 
ATOM     19  C   UNL     1      -4.019   0.715  -1.046  1.00  0.00     0.028 A 
ATOM     20  C   UNL     1      -3.950  -0.875   0.789  1.00  0.00     0.065 A 
ATOM     21  C   UNL     1      -5.391   0.492  -1.187  1.00  0.00     0.002 A 
ATOM     22  C   UNL     1      -5.325  -1.091   0.642  1.00  0.00     0.023 A 
ATOM     23  C   UNL     1      -6.043  -0.412  -0.346  1.00  0.00     0.002 A 
ATOM     24  Cl  UNL     1      -3.098  -1.700   2.088  1.00  0.00    -0.082 Cl
ENDBRANCH  15  18
ENDBRANCH   1  11
TORSDOF 4
