REMARK SMILES N#Cc1ccc(NC(=O)Nc2ccc(Oc3ccc(NC(=O)Nc4ccc(C#N)cc4)cc3)cc2)cc1
REMARK SMILES IDX 15 1 14 2 11 3 12 4 35 5 13 6 34 7 10 8 7 9 8 10 9 12 6 14
REMARK SMILES IDX 3 15 4 16 37 17 5 18 36 19 2 20 1 21 16 22 17 23 33 24 18 25
REMARK SMILES IDX 32 26 19 27 20 28 21 29 23 30 22 32 24 34 25 35 31 36 26 37
REMARK SMILES IDX 30 38 27 39 28 40 29 41
REMARK H PARENT 7 11 10 13 20 31 23 33
ROOT
ATOM      1  O   UNL     1       0.028   1.733   0.072  1.00  0.00    -0.457 OA
ENDROOT
BRANCH   1   2
ATOM      2  C   UNL     1       1.253   1.085  -0.151  1.00  0.00     0.127 A 
ATOM      3  C   UNL     1       3.758  -0.112  -0.652  1.00  0.00     0.043 A 
ATOM      4  C   UNL     1       3.678   1.192  -0.130  1.00  0.00     0.030 A 
ATOM      5  C   UNL     1       2.572  -0.797  -0.945  1.00  0.00     0.030 A 
ATOM      6  C   UNL     1       2.435   1.777   0.128  1.00  0.00     0.049 A 
ATOM      7  C   UNL     1       1.329  -0.205  -0.701  1.00  0.00     0.049 A 
BRANCH   3   8
ATOM      8  N   UNL     1       5.017  -0.725  -0.985  1.00  0.00    -0.308 N 
ATOM      9  N   UNL     1       7.493  -0.767  -1.059  1.00  0.00    -0.308 N 
ATOM     10  C   UNL     1       6.280  -0.397  -0.385  1.00  0.00     0.323 C 
ATOM     11  H   UNL     1       7.412  -1.072  -2.055  1.00  0.00     0.171 HD
ATOM     12  O   UNL     1       6.321   0.207   0.721  1.00  0.00    -0.248 OA
ATOM     13  H   UNL     1       5.016  -1.487  -1.701  1.00  0.00     0.171 HD
BRANCH   9  14
ATOM     14  C   UNL     1       8.815  -0.593  -0.518  1.00  0.00     0.042 A 
ATOM     15  C   UNL     1      11.433  -0.312   0.469  1.00  0.00     0.052 A 
ATOM     16  C   UNL     1      10.384  -0.623   1.343  1.00  0.00     0.021 A 
ATOM     17  C   UNL     1      11.178  -0.155  -0.898  1.00  0.00     0.021 A 
ATOM     18  C   UNL     1       9.083  -0.773   0.852  1.00  0.00     0.027 A 
ATOM     19  C   UNL     1       9.876  -0.300  -1.388  1.00  0.00     0.027 A 
BRANCH  15  20
ATOM     20  C   UNL     1      12.774  -0.165   0.973  1.00  0.00     0.099 C 
ATOM     21  N   UNL     1      13.851  -0.046   1.377  1.00  0.00    -0.192 NA
ENDBRANCH  15  20
ENDBRANCH   9  14
ENDBRANCH   3   8
ENDBRANCH   1   2
BRANCH   1  22
ATOM     22  C   UNL     1      -1.215   1.101   0.203  1.00  0.00     0.127 A 
ATOM     23  C   UNL     1      -2.334   1.685  -0.395  1.00  0.00     0.049 A 
ATOM     24  C   UNL     1      -1.369  -0.081   0.947  1.00  0.00     0.049 A 
ATOM     25  C   UNL     1      -3.590   1.077  -0.295  1.00  0.00     0.030 A 
ATOM     26  C   UNL     1      -2.626  -0.686   1.056  1.00  0.00     0.030 A 
ATOM     27  C   UNL     1      -3.749  -0.111   0.443  1.00  0.00     0.043 A 
BRANCH  27  28
ATOM     28  N   UNL     1      -5.016  -0.790   0.519  1.00  0.00    -0.308 N 
ATOM     29  C   UNL     1      -6.295  -0.148   0.414  1.00  0.00     0.323 C 
ATOM     30  N   UNL     1      -7.454  -0.935   0.098  1.00  0.00    -0.308 N 
ATOM     31  H   UNL     1      -5.010  -1.823   0.674  1.00  0.00     0.171 HD
ATOM     32  O   UNL     1      -6.400   1.094   0.603  1.00  0.00    -0.248 OA
ATOM     33  H   UNL     1      -7.289  -1.901  -0.267  1.00  0.00     0.171 HD
BRANCH  30  34
ATOM     34  C   UNL     1      -8.805  -0.444   0.116  1.00  0.00     0.042 A 
ATOM     35  C   UNL     1      -9.236   0.493   1.073  1.00  0.00     0.027 A 
ATOM     36  C   UNL     1      -9.733  -0.957  -0.803  1.00  0.00     0.027 A 
ATOM     37  C   UNL     1     -10.564   0.932   1.083  1.00  0.00     0.021 A 
ATOM     38  C   UNL     1     -11.060  -0.518  -0.792  1.00  0.00     0.021 A 
ATOM     39  C   UNL     1     -11.477   0.431   0.148  1.00  0.00     0.052 A 
BRANCH  39  40
ATOM     40  C   UNL     1     -12.845   0.881   0.163  1.00  0.00     0.099 C 
ATOM     41  N   UNL     1     -13.944   1.242   0.177  1.00  0.00    -0.192 NA
ENDBRANCH  39  40
ENDBRANCH  30  34
ENDBRANCH  27  28
ENDBRANCH   1  22
TORSDOF 8
