REMARK SMILES C=C(O)c1c(OC(C)=O)c(C)c(OC(C)=O)c2c1O[C@H]1C=C(O)C(C(C)=O)=C(O)[C@]21C
REMARK SMILES IDX 22 1 21 2 20 3 19 4 18 5 4 6 5 7 10 8 11 9 12 10 17 11 30 12
REMARK SMILES IDX 31 13 28 14 24 15 23 16 25 18 26 19 27 20 29 21 2 23 1 24
REMARK SMILES IDX 3 25 13 27 14 28 15 29 16 30 6 31 7 32 8 33 9 34
REMARK H PARENT 23 17 29 22 3 26
ROOT
ATOM      1  C   UNL     1      -3.777  -1.742  -0.658  1.00  0.00     0.129 C 
ATOM      2  C   UNL     1      -2.658  -2.492  -0.531  1.00  0.00     0.065 C 
ATOM      3  C   UNL     1      -1.371  -1.752  -0.680  1.00  0.00     0.218 C 
ATOM      4  O   UNL     1      -0.136  -2.365  -0.355  1.00  0.00    -0.483 OA
ATOM      5  C   UNL     1       0.739  -1.310  -0.101  1.00  0.00     0.143 A 
ATOM      6  C   UNL     1       2.132  -1.381  -0.041  1.00  0.00     0.101 A 
ATOM      7  C   UNL     1       2.851  -0.184   0.179  1.00  0.00     0.152 A 
ATOM      8  C   UNL     1       2.157   1.038   0.431  1.00  0.00     0.036 A 
ATOM      9  C   UNL     1       2.926   2.306   0.709  1.00  0.00     0.052 C 
ATOM     10  C   UNL     1       0.738   1.060   0.398  1.00  0.00     0.145 A 
ATOM     11  C   UNL     1       0.058  -0.116   0.068  1.00  0.00     0.056 A 
ATOM     12  C   UNL     1      -1.406  -0.457   0.150  1.00  0.00     0.098 C 
ATOM     13  C   UNL     1      -1.749  -0.697   1.646  1.00  0.00     0.030 C 
ATOM     14  C   UNL     1      -2.491   0.391  -0.485  1.00  0.00     0.121 C 
ATOM     15  C   UNL     1      -3.671  -0.235  -0.805  1.00  0.00     0.097 C 
ENDROOT
BRANCH   1  16
ATOM     16  O   UNL     1      -5.032  -2.350  -0.624  1.00  0.00    -0.507 OA
ATOM     17  H   UNL     1      -5.136  -3.353  -0.518  1.00  0.00     0.293 HD
ENDBRANCH   1  16
BRANCH  15  18
ATOM     18  C   UNL     1      -4.850   0.527  -1.275  1.00  0.00     0.166 C 
ATOM     19  C   UNL     1      -5.705   0.016  -2.392  1.00  0.00     0.094 C 
ATOM     20  O   UNL     1      -5.185   1.592  -0.690  1.00  0.00    -0.294 OA
ENDBRANCH  15  18
BRANCH  14  21
ATOM     21  O   UNL     1      -2.269   1.752  -0.706  1.00  0.00    -0.510 OA
ATOM     22  H   UNL     1      -2.906   2.343  -1.222  1.00  0.00     0.293 HD
ENDBRANCH  14  21
BRANCH   6  23
ATOM     23  C   UNL     1       2.829  -2.672  -0.247  1.00  0.00     0.123 C 
ATOM     24  C   UNL     1       2.491  -3.751   0.459  1.00  0.00     0.059 C 
BRANCH  23  25
ATOM     25  O   UNL     1       3.852  -2.778  -1.188  1.00  0.00    -0.508 OA
ATOM     26  H   UNL     1       4.092  -2.006  -1.798  1.00  0.00     0.293 HD
ENDBRANCH  23  25
ENDBRANCH   6  23
BRANCH  10  27
ATOM     27  O   UNL     1       0.018   2.222   0.687  1.00  0.00    -0.426 OA
BRANCH  27  28
ATOM     28  C   UNL     1      -0.205   2.669   1.993  1.00  0.00     0.308 C 
ATOM     29  C   UNL     1      -0.990   3.916   2.217  1.00  0.00     0.139 C 
ATOM     30  O   UNL     1       0.280   2.050   2.979  1.00  0.00    -0.252 OA
ENDBRANCH  27  28
ENDBRANCH  10  27
BRANCH   7  31
ATOM     31  O   UNL     1       4.252  -0.232   0.199  1.00  0.00    -0.425 OA
BRANCH  31  32
ATOM     32  C   UNL     1       5.057   0.450  -0.720  1.00  0.00     0.308 C 
ATOM     33  C   UNL     1       6.534   0.478  -0.525  1.00  0.00     0.139 C 
ATOM     34  O   UNL     1       4.548   1.038  -1.713  1.00  0.00    -0.252 OA
ENDBRANCH  31  32
ENDBRANCH   7  31
TORSDOF 9
