REMARK SMILES CCN(CC)c1nc(Cl)[nH]c(=Nc2ccc3cc(-c4ccccc4)c(=O)oc3c2)n1
REMARK SMILES IDX 10 1 8 2 9 3 7 4 6 5 30 6 11 7 12 9 13 10 14 11 29 12 15 13
REMARK SMILES IDX 28 14 16 15 27 16 17 17 25 18 18 19 26 20 19 21 20 22 24 23
REMARK SMILES IDX 21 24 23 25 22 26 3 27 2 28 1 29 4 30 5 31
REMARK H PARENT 10 8
ROOT
ATOM      1  N   UNL     1       2.127   0.610   1.354  1.00  0.00    -0.299 N 
ATOM      2  C   UNL     1       3.183   0.991   2.119  1.00  0.00     0.206 A 
ATOM      3  Cl  UNL     1       2.919   1.732   3.686  1.00  0.00    -0.043 Cl
ATOM      4  N   UNL     1       4.449   0.815   1.669  1.00  0.00    -0.183 NA
ATOM      5  C   UNL     1       4.675   0.261   0.449  1.00  0.00     0.231 A 
ATOM      6  N   UNL     1       3.616  -0.122  -0.311  1.00  0.00    -0.176 NA
ATOM      7  C   UNL     1       2.343   0.032   0.134  1.00  0.00     0.232 A 
ATOM      8  H   UNL     1       1.166   0.804   1.709  1.00  0.00     0.172 HD
ENDROOT
BRANCH   7   9
ATOM      9  N   UNL     1       1.363  -0.345  -0.638  1.00  0.00    -0.213 NA
BRANCH   9  10
ATOM     10  C   UNL     1      -0.036  -0.363  -0.318  1.00  0.00     0.071 A 
ATOM     11  C   UNL     1      -0.507  -0.997   0.846  1.00  0.00     0.029 A 
ATOM     12  C   UNL     1      -0.952   0.159  -1.239  1.00  0.00     0.076 A 
ATOM     13  C   UNL     1      -1.878  -1.054   1.114  1.00  0.00     0.014 A 
ATOM     14  C   UNL     1      -2.326   0.105  -0.978  1.00  0.00     0.140 A 
ATOM     15  C   UNL     1      -2.792  -0.500   0.206  1.00  0.00     0.018 A 
ATOM     16  O   UNL     1      -3.187   0.621  -1.849  1.00  0.00    -0.422 OA
ATOM     17  C   UNL     1      -4.168  -0.536   0.441  1.00  0.00     0.028 A 
ATOM     18  C   UNL     1      -4.504   0.605  -1.658  1.00  0.00     0.344 A 
ATOM     19  C   UNL     1      -5.050   0.028  -0.492  1.00  0.00     0.068 A 
ATOM     20  O   UNL     1      -5.253   1.094  -2.545  1.00  0.00    -0.246 OA
BRANCH  19  21
ATOM     21  C   UNL     1      -6.513   0.001  -0.240  1.00  0.00    -0.011 A 
ATOM     22  C   UNL     1      -7.140  -1.189   0.173  1.00  0.00     0.009 A 
ATOM     23  C   UNL     1      -7.289   1.165  -0.390  1.00  0.00     0.009 A 
ATOM     24  C   UNL     1      -8.516  -1.215   0.419  1.00  0.00     0.001 A 
ATOM     25  C   UNL     1      -8.665   1.134  -0.142  1.00  0.00     0.001 A 
ATOM     26  C   UNL     1      -9.278  -0.055   0.261  1.00  0.00     0.000 A 
ENDBRANCH  19  21
ENDBRANCH   9  10
ENDBRANCH   7   9
BRANCH   5  27
ATOM     27  N   UNL     1       6.024   0.082  -0.034  1.00  0.00    -0.341 N 
BRANCH  27  28
ATOM     28  C   UNL     1       6.272  -0.603  -1.311  1.00  0.00     0.116 C 
ATOM     29  C   UNL     1       6.152  -2.114  -1.140  1.00  0.00     0.027 C 
ENDBRANCH  27  28
BRANCH  27  30
ATOM     30  C   UNL     1       7.165   0.581   0.747  1.00  0.00     0.116 C 
ATOM     31  C   UNL     1       7.321   2.087   0.563  1.00  0.00     0.027 C 
ENDBRANCH  27  30
ENDBRANCH   5  27
TORSDOF 6
