REMARK SMILES Nc1cc(Cl)ccc1N1C(=O)CCC1=O
REMARK SMILES IDX 2 1 3 2 4 3 5 4 6 5 7 6 8 7 1 8 9 11 10 12 14 13 12 14 13 15
REMARK SMILES IDX 11 16 15 17
REMARK H PARENT 1 9 1 10
ROOT
ATOM      1  C   UNL     1      -1.588   0.188   0.747  1.00  0.00     0.058 A 
ATOM      2  C   UNL     1      -2.941  -0.037   0.452  1.00  0.00     0.048 A 
ATOM      3  C   UNL     1      -3.331  -0.442  -0.828  1.00  0.00     0.043 A 
ATOM      4  Cl  UNL     1      -5.026  -0.715  -1.185  1.00  0.00    -0.084 Cl
ATOM      5  C   UNL     1      -2.370  -0.623  -1.825  1.00  0.00     0.023 A 
ATOM      6  C   UNL     1      -1.019  -0.408  -1.543  1.00  0.00     0.030 A 
ATOM      7  C   UNL     1      -0.614  -0.010  -0.259  1.00  0.00     0.075 A 
ENDROOT
BRANCH   1   8
ATOM      8  N   UNL     1      -1.223   0.654   2.052  1.00  0.00    -0.397 N 
ATOM      9  H   UNL     1      -0.247   0.950   2.276  1.00  0.00     0.156 HD
ATOM     10  H   UNL     1      -1.945   0.761   2.798  1.00  0.00     0.156 HD
ENDBRANCH   1   8
BRANCH   7  11
ATOM     11  N   UNL     1       0.783   0.167   0.020  1.00  0.00    -0.248 N 
ATOM     12  C   UNL     1       1.560  -0.637   0.892  1.00  0.00     0.234 C 
ATOM     13  C   UNL     1       1.716   0.871  -0.782  1.00  0.00     0.234 C 
ATOM     14  C   UNL     1       3.029  -0.423   0.738  1.00  0.00     0.111 C 
ATOM     15  C   UNL     1       3.135   0.600  -0.411  1.00  0.00     0.111 C 
ATOM     16  O   UNL     1       1.057  -1.475   1.688  1.00  0.00    -0.274 OA
ATOM     17  O   UNL     1       1.373   1.654  -1.707  1.00  0.00    -0.274 OA
ENDBRANCH   7  11
TORSDOF 2
