REMARK SMILES Clc1ccccc1-c1nc(-c2ccncc2)no1
REMARK SMILES IDX 1 1 2 2 3 3 4 4 5 5 6 6 7 7 8 8 9 9 18 10 10 11 17 12 11 13
REMARK SMILES IDX 12 14 16 15 13 16 15 17 14 18
REMARK H PARENT
ROOT
ATOM      1  Cl  UNL     1      -3.095  -2.654  -1.092  1.00  0.00    -0.083 Cl
ATOM      2  C   UNL     1      -3.313  -0.993  -0.550  1.00  0.00     0.053 A 
ATOM      3  C   UNL     1      -4.627  -0.512  -0.474  1.00  0.00     0.021 A 
ATOM      4  C   UNL     1      -4.882   0.793  -0.053  1.00  0.00     0.002 A 
ATOM      5  C   UNL     1      -3.824   1.631   0.297  1.00  0.00     0.001 A 
ATOM      6  C   UNL     1      -2.509   1.167   0.227  1.00  0.00     0.015 A 
ATOM      7  C   UNL     1      -2.230  -0.148  -0.196  1.00  0.00     0.058 A 
ENDROOT
BRANCH   7   8
ATOM      8  C   UNL     1      -0.815  -0.595  -0.253  1.00  0.00     0.259 A 
ATOM      9  N   UNL     1       0.234   0.186   0.078  1.00  0.00    -0.187 NA
ATOM     10  O   UNL     1      -0.415  -1.787  -0.626  1.00  0.00    -0.334 OA
ATOM     11  C   UNL     1       1.276  -0.646  -0.133  1.00  0.00     0.202 A 
ATOM     12  N   UNL     1       0.880  -1.859  -0.565  1.00  0.00    -0.057 NA
BRANCH  11  13
ATOM     13  C   UNL     1       2.688  -0.269   0.086  1.00  0.00     0.026 A 
ATOM     14  C   UNL     1       3.021   1.018   0.539  1.00  0.00     0.032 A 
ATOM     15  C   UNL     1       3.720  -1.191  -0.155  1.00  0.00     0.032 A 
ATOM     16  C   UNL     1       4.362   1.354   0.740  1.00  0.00     0.111 A 
ATOM     17  C   UNL     1       5.048  -0.813   0.058  1.00  0.00     0.111 A 
ATOM     18  N   UNL     1       5.339   0.440   0.497  1.00  0.00    -0.265 NA
ENDBRANCH  11  13
ENDBRANCH   7   8
TORSDOF 2
