REMARK SMILES Cc1cc(=[SH2])[nH]c([S-])n1
REMARK SMILES IDX 6 1 7 2 8 3 9 4 2 5 1 6 3 7 4 8 5 10
REMARK H PARENT 6 9 5 11 5 12
ROOT
ATOM      1  N   UNL     1       1.344   1.040   0.272  1.00  0.00    -0.359 N 
ATOM      2  C   UNL     1       0.269   1.867   0.164  1.00  0.00    -0.018 A 
ATOM      3  S   UNL     1       0.503   3.648   0.022  1.00  0.00    -0.742 S 
ATOM      4  N   UNL     1      -0.989   1.355   0.161  1.00  0.00    -0.265 NA
ATOM      5  C   UNL     1      -1.203   0.018   0.267  1.00  0.00     0.040 A 
ATOM      6  C   UNL     1      -2.600  -0.517   0.263  1.00  0.00     0.067 C 
ATOM      7  C   UNL     1      -0.113  -0.850   0.380  1.00  0.00     0.055 A 
ATOM      8  C   UNL     1       1.177  -0.310   0.379  1.00  0.00     0.059 A 
ATOM      9  H   UNL     1       2.302   1.457   0.274  1.00  0.00     0.166 HD
ENDROOT
BRANCH   8  10
ATOM     10  S   UNL     1       2.454  -1.293   0.511  1.00  0.00    -0.192 S 
ATOM     11  H   UNL     1       3.580  -0.489   0.350  1.00  0.00     0.095 HD
ATOM     12  H   UNL     1       2.410  -2.045  -0.661  1.00  0.00     0.095 HD
ENDBRANCH   8  10
TORSDOF 1
