REMARK SMILES C=C(O)C1=C(O)C[C@H]2Oc3c(C(C)=O)c(OC(C)=O)c(C)c(OC(C)=O)c3[C@@]2(C)C1=O
REMARK SMILES IDX 5 1 4 2 30 3 31 4 28 5 29 6 27 7 22 8 20 9 21 10 15 11 11 12
REMARK SMILES IDX 10 13 9 14 8 15 7 16 6 17 2 19 1 20 3 21 23 23 24 24 25 25
REMARK SMILES IDX 26 26 12 27 13 28 14 29 16 30 17 31 18 32 19 33
REMARK H PARENT 6 18 3 22
ROOT
ATOM      1  C   UNL     1      -3.792   0.340  -0.700  1.00  0.00     0.111 C 
ATOM      2  C   UNL     1      -3.355  -0.163   0.466  1.00  0.00     0.097 C 
ATOM      3  C   UNL     1      -2.356  -1.256   0.446  1.00  0.00     0.184 C 
ATOM      4  O   UNL     1      -2.275  -2.041   1.431  1.00  0.00    -0.293 OA
ATOM      5  C   UNL     1      -1.373  -1.374  -0.707  1.00  0.00     0.101 C 
ATOM      6  C   UNL     1      -1.020  -2.845  -1.005  1.00  0.00     0.029 C 
ATOM      7  C   UNL     1      -0.147  -0.562  -0.378  1.00  0.00     0.056 A 
ATOM      8  C   UNL     1       0.765  -0.735   0.670  1.00  0.00     0.145 A 
ATOM      9  C   UNL     1       1.782   0.236   0.854  1.00  0.00     0.036 A 
ATOM     10  C   UNL     1       2.692   0.161   2.054  1.00  0.00     0.052 C 
ATOM     11  C   UNL     1       1.903   1.313  -0.070  1.00  0.00     0.152 A 
ATOM     12  C   UNL     1       0.953   1.476  -1.107  1.00  0.00     0.103 A 
ATOM     13  C   UNL     1      -0.062   0.515  -1.218  1.00  0.00     0.142 A 
ATOM     14  O   UNL     1      -1.094   0.518  -2.133  1.00  0.00    -0.487 OA
ATOM     15  C   UNL     1      -1.886  -0.658  -2.010  1.00  0.00     0.199 C 
ATOM     16  C   UNL     1      -3.380  -0.301  -1.998  1.00  0.00     0.122 C 
ENDROOT
BRANCH   1  17
ATOM     17  O   UNL     1      -4.661   1.432  -0.718  1.00  0.00    -0.511 OA
ATOM     18  H   UNL     1      -5.016   1.811  -1.587  1.00  0.00     0.293 HD
ENDBRANCH   1  17
BRANCH   2  19
ATOM     19  C   UNL     1      -3.832   0.381   1.762  1.00  0.00     0.122 C 
ATOM     20  C   UNL     1      -2.973   0.657   2.743  1.00  0.00     0.059 C 
BRANCH  19  21
ATOM     21  O   UNL     1      -5.191   0.611   1.976  1.00  0.00    -0.508 OA
ATOM     22  H   UNL     1      -5.888   0.352   1.289  1.00  0.00     0.293 HD
ENDBRANCH  19  21
ENDBRANCH   2  19
BRANCH   8  23
ATOM     23  O   UNL     1       0.626  -1.831   1.529  1.00  0.00    -0.426 OA
BRANCH  23  24
ATOM     24  C   UNL     1       1.617  -2.803   1.702  1.00  0.00     0.308 C 
ATOM     25  C   UNL     1       1.427  -3.866   2.727  1.00  0.00     0.139 C 
ATOM     26  O   UNL     1       2.630  -2.832   0.951  1.00  0.00    -0.252 OA
ENDBRANCH  23  24
ENDBRANCH   8  23
BRANCH  12  27
ATOM     27  C   UNL     1       1.032   2.626  -2.047  1.00  0.00     0.167 C 
ATOM     28  C   UNL     1       0.511   2.541  -3.449  1.00  0.00     0.094 C 
ATOM     29  O   UNL     1       1.523   3.720  -1.657  1.00  0.00    -0.294 OA
ENDBRANCH  12  27
BRANCH  11  30
ATOM     30  O   UNL     1       2.953   2.233   0.043  1.00  0.00    -0.425 OA
BRANCH  30  31
ATOM     31  C   UNL     1       4.301   1.877  -0.078  1.00  0.00     0.308 C 
ATOM     32  C   UNL     1       5.355   2.899   0.175  1.00  0.00     0.139 C 
ATOM     33  O   UNL     1       4.630   0.722  -0.463  1.00  0.00    -0.252 OA
ENDBRANCH  30  31
ENDBRANCH  11  30
TORSDOF 8
