REMARK SMILES CC(=O)Oc1c(C)c(OC(C)=O)c2c(c1C(C)=O)O[C@@H]1CC(=O)[C@H](C(C)=O)C(=O)[C@]21C
REMARK SMILES IDX 24 1 22 2 23 3 21 4 20 5 19 6 14 7 15 8 5 9 6 10 7 11 8 12
REMARK SMILES IDX 13 13 30 14 31 15 28 16 29 17 25 18 26 19 27 20 9 21 10 22
REMARK SMILES IDX 11 23 12 24 16 25 17 26 18 27 4 28 2 29 1 30 3 31
REMARK H PARENT
ROOT
ATOM      1  C   UNL     1       3.855   0.383   0.718  1.00  0.00     0.190 C 
ATOM      2  C   UNL     1       3.849  -0.586   1.870  1.00  0.00     0.154 C 
ATOM      3  O   UNL     1       4.902  -0.997   2.333  1.00  0.00    -0.298 OA
ATOM      4  C   UNL     1       2.542  -1.013   2.465  1.00  0.00     0.123 C 
ATOM      5  C   UNL     1       1.643  -1.622   1.379  1.00  0.00     0.198 C 
ATOM      6  O   UNL     1       0.294  -1.609   1.833  1.00  0.00    -0.487 OA
ATOM      7  C   UNL     1      -0.534  -1.001   0.914  1.00  0.00     0.142 A 
ATOM      8  C   UNL     1      -1.917  -0.842   1.041  1.00  0.00     0.103 A 
ATOM      9  C   UNL     1      -2.622  -0.271  -0.049  1.00  0.00     0.152 A 
ATOM     10  C   UNL     1      -1.920   0.171  -1.200  1.00  0.00     0.036 A 
ATOM     11  C   UNL     1      -2.697   0.708  -2.376  1.00  0.00     0.052 C 
ATOM     12  C   UNL     1      -0.504   0.065  -1.249  1.00  0.00     0.145 A 
ATOM     13  C   UNL     1       0.161  -0.545  -0.172  1.00  0.00     0.055 A 
ATOM     14  C   UNL     1       1.633  -0.845   0.001  1.00  0.00     0.097 C 
ATOM     15  C   UNL     1       2.132  -1.757  -1.135  1.00  0.00     0.029 C 
ATOM     16  C   UNL     1       2.491   0.419   0.053  1.00  0.00     0.165 C 
ATOM     17  O   UNL     1       2.140   1.429  -0.538  1.00  0.00    -0.297 OA
ENDROOT
BRANCH   1  18
ATOM     18  C   UNL     1       4.266   1.752   1.213  1.00  0.00     0.147 C 
ATOM     19  C   UNL     1       5.492   2.436   0.683  1.00  0.00     0.089 C 
ATOM     20  O   UNL     1       3.590   2.321   2.058  1.00  0.00    -0.299 OA
ENDBRANCH   1  18
BRANCH  12  21
ATOM     21  O   UNL     1       0.235   0.500  -2.357  1.00  0.00    -0.426 OA
BRANCH  21  22
ATOM     22  C   UNL     1       0.209   1.813  -2.842  1.00  0.00     0.308 C 
ATOM     23  C   UNL     1       0.922   2.138  -4.109  1.00  0.00     0.139 C 
ATOM     24  O   UNL     1      -0.341   2.735  -2.181  1.00  0.00    -0.252 OA
ENDBRANCH  21  22
ENDBRANCH  12  21
BRANCH   8  25
ATOM     25  C   UNL     1      -2.584  -1.246   2.300  1.00  0.00     0.167 C 
ATOM     26  C   UNL     1      -3.618  -0.383   2.957  1.00  0.00     0.094 C 
ATOM     27  O   UNL     1      -2.259  -2.330   2.856  1.00  0.00    -0.294 OA
ENDBRANCH   8  25
BRANCH   9  28
ATOM     28  O   UNL     1      -4.018  -0.155  -0.021  1.00  0.00    -0.425 OA
BRANCH  28  29
ATOM     29  C   UNL     1      -4.874  -1.259   0.048  1.00  0.00     0.308 C 
ATOM     30  C   UNL     1      -6.344  -1.041   0.159  1.00  0.00     0.139 C 
ATOM     31  O   UNL     1      -4.422  -2.433  -0.039  1.00  0.00    -0.252 OA
ENDBRANCH  28  29
ENDBRANCH   9  28
TORSDOF 6
