REMARK SMILES CCCNc1cc(=[SH2])[nH]c(N)n1
REMARK SMILES IDX 4 1 5 3 9 4 10 5 7 6 12 7 6 8 11 10 8 13 3 16 2 17 1 18
REMARK H PARENT 4 2 9 9 11 11 11 12 8 14 8 15
ROOT
ATOM      1  N   UNL     1      -1.000  -0.529  -0.477  1.00  0.00    -0.370 N 
ATOM      2  H   UNL     1      -1.620  -1.287  -0.111  1.00  0.00     0.162 HD
ENDROOT
BRANCH   1   3
ATOM      3  C   UNL     1       0.303  -0.401   0.115  1.00  0.00     0.132 A 
ATOM      4  N   UNL     1       2.775  -0.239   1.314  1.00  0.00    -0.322 N 
ATOM      5  C   UNL     1       1.866  -1.165   1.729  1.00  0.00     0.200 A 
ATOM      6  C   UNL     1       2.479   0.623   0.299  1.00  0.00     0.063 A 
ATOM      7  N   UNL     1       0.649  -1.236   1.130  1.00  0.00    -0.198 NA
ATOM      8  C   UNL     1       1.230   0.557  -0.325  1.00  0.00     0.078 A 
ATOM      9  H   UNL     1       3.708  -0.199   1.784  1.00  0.00     0.170 HD
BRANCH   5  10
ATOM     10  N   UNL     1       2.185  -2.063   2.792  1.00  0.00    -0.369 N 
ATOM     11  H   UNL     1       1.488  -2.772   3.109  1.00  0.00     0.159 HD
ATOM     12  H   UNL     1       3.115  -2.023   3.264  1.00  0.00     0.159 HD
ENDBRANCH   5  10
BRANCH   6  13
ATOM     13  S   UNL     1       3.561   1.719  -0.195  1.00  0.00    -0.192 S 
ATOM     14  H   UNL     1       2.964   2.935   0.128  1.00  0.00     0.095 HD
ATOM     15  H   UNL     1       4.636   1.629   0.687  1.00  0.00     0.095 HD
ENDBRANCH   6  13
ENDBRANCH   1   3
BRANCH   1  16
ATOM     16  C   UNL     1      -1.481   0.331  -1.562  1.00  0.00     0.114 C 
BRANCH  16  17
ATOM     17  C   UNL     1      -2.922  -0.013  -1.962  1.00  0.00     0.018 C 
ATOM     18  C   UNL     1      -3.930   0.395  -0.889  1.00  0.00     0.006 C 
ENDBRANCH  16  17
ENDBRANCH   1  16
TORSDOF 5
