REMARK SMILES O=C1NC(=O)C(=Cc2ccc(/C=C3\NC(=O)NC3=O)cc2)N1
REMARK SMILES IDX 8 1 9 2 10 3 11 4 20 5 21 6 7 7 6 8 22 9 2 10 3 11 4 12 1 14
REMARK SMILES IDX 5 16 12 17 13 18 14 19 18 20 15 21 17 22 19 24 16 25
REMARK H PARENT 22 13 3 15 14 23 17 26
ROOT
ATOM      1  C   UNL     1       1.408   0.431  -0.669  1.00  0.00    -0.023 A 
ATOM      2  C   UNL     1       0.823   0.208  -1.923  1.00  0.00     0.009 A 
ATOM      3  C   UNL     1      -0.517  -0.177  -2.019  1.00  0.00     0.009 A 
ATOM      4  C   UNL     1      -1.304  -0.304  -0.866  1.00  0.00    -0.023 A 
ATOM      5  C   UNL     1      -0.719  -0.078   0.392  1.00  0.00     0.009 A 
ATOM      6  C   UNL     1       0.622   0.306   0.488  1.00  0.00     0.009 A 
ENDROOT
BRANCH   1   7
ATOM      7  C   UNL     1       2.810   0.882  -0.594  1.00  0.00     0.040 C 
BRANCH   7   8
ATOM      8  C   UNL     1       3.744   0.329   0.193  1.00  0.00     0.109 C 
ATOM      9  N   UNL     1       5.078   0.824   0.285  1.00  0.00    -0.303 N 
ATOM     10  C   UNL     1       5.740  -0.059   1.187  1.00  0.00     0.326 C 
ATOM     11  N   UNL     1       4.903  -1.103   1.674  1.00  0.00    -0.272 N 
ATOM     12  C   UNL     1       3.655  -0.870   1.035  1.00  0.00     0.275 C 
ATOM     13  H   UNL     1       5.486   1.654  -0.199  1.00  0.00     0.172 HD
ATOM     14  O   UNL     1       6.948   0.067   1.515  1.00  0.00    -0.248 OA
ATOM     15  H   UNL     1       5.164  -1.894   2.303  1.00  0.00     0.175 HD
ATOM     16  O   UNL     1       2.670  -1.648   1.134  1.00  0.00    -0.267 OA
ENDBRANCH   7   8
ENDBRANCH   1   7
BRANCH   4  17
ATOM     17  C   UNL     1      -2.707  -0.748  -0.996  1.00  0.00     0.040 C 
BRANCH  17  18
ATOM     18  C   UNL     1      -3.729  -0.214  -0.313  1.00  0.00     0.109 C 
ATOM     19  N   UNL     1      -3.661   0.923   0.550  1.00  0.00    -0.303 N 
ATOM     20  C   UNL     1      -5.125  -0.633  -0.396  1.00  0.00     0.275 C 
ATOM     21  C   UNL     1      -5.010   1.150   0.955  1.00  0.00     0.326 C 
ATOM     22  N   UNL     1      -5.933   0.214   0.408  1.00  0.00    -0.272 N 
ATOM     23  H   UNL     1      -2.853   1.564   0.713  1.00  0.00     0.172 HD
ATOM     24  O   UNL     1      -5.572  -1.593  -1.077  1.00  0.00    -0.267 OA
ATOM     25  O   UNL     1      -5.354   2.099   1.706  1.00  0.00    -0.248 OA
ATOM     26  H   UNL     1      -6.969   0.181   0.537  1.00  0.00     0.175 HD
ENDBRANCH  17  18
ENDBRANCH   4  17
TORSDOF 4
