REMARK SMILES CC(=O)C(=Cc1ccc(O)cc1)C(C)=O
REMARK SMILES IDX 5 1 4 2 2 3 1 4 3 5 13 6 14 7 15 8 6 9 7 10 12 11 8 12 11 13
REMARK SMILES IDX 9 14 10 15
REMARK H PARENT 10 16
ROOT
ATOM      1  C   UNL     1      -1.082  -0.365  -0.104  1.00  0.00     0.023 C 
ENDROOT
BRANCH   1   2
ATOM      2  C   UNL     1      -1.353   0.634  -0.973  1.00  0.00     0.061 C 
BRANCH   2   3
ATOM      3  C   UNL     1      -0.348   1.673  -1.311  1.00  0.00     0.163 C 
ATOM      4  C   UNL     1       0.414   2.409  -0.250  1.00  0.00     0.093 C 
ATOM      5  O   UNL     1      -0.155   1.976  -2.519  1.00  0.00    -0.294 OA
ENDBRANCH   2   3
BRANCH   2   6
ATOM      6  C   UNL     1      -2.707   0.760  -1.581  1.00  0.00     0.163 C 
ATOM      7  C   UNL     1      -3.724  -0.341  -1.514  1.00  0.00     0.093 C 
ATOM      8  O   UNL     1      -3.026   1.832  -2.166  1.00  0.00    -0.294 OA
ENDBRANCH   2   6
ENDBRANCH   1   2
BRANCH   1   9
ATOM      9  C   UNL     1       0.258  -0.668   0.447  1.00  0.00    -0.025 A 
ATOM     10  C   UNL     1       0.389  -0.960   1.812  1.00  0.00     0.012 A 
ATOM     11  C   UNL     1       1.389  -0.749  -0.385  1.00  0.00     0.012 A 
ATOM     12  C   UNL     1       1.639  -1.280   2.350  1.00  0.00     0.047 A 
ATOM     13  C   UNL     1       2.639  -1.069   0.155  1.00  0.00     0.047 A 
ATOM     14  C   UNL     1       2.767  -1.332   1.525  1.00  0.00     0.115 A 
BRANCH  14  15
ATOM     15  O   UNL     1       4.007  -1.650   2.074  1.00  0.00    -0.508 OA
ATOM     16  H   UNL     1       4.843  -1.697   1.503  1.00  0.00     0.293 HD
ENDBRANCH  14  15
ENDBRANCH   1   9
TORSDOF 5
