REMARK SMILES O=C1NC(=O)[C@]2(CCc3ccccc32)N1
REMARK SMILES IDX 1 1 2 2 3 3 4 4 5 5 6 6 7 7 8 8 9 9 10 10 11 11 12 12 13 13
REMARK SMILES IDX 14 14 15 15
REMARK H PARENT 3 16 15 17
ROOT
ATOM      1  O   UNL     1      -3.791   1.413   1.574  1.00  0.00    -0.248 OA
ATOM      2  C   UNL     1      -2.901   0.831   0.900  1.00  0.00     0.322 C 
ATOM      3  N   UNL     1      -2.959   0.688  -0.507  1.00  0.00    -0.276 N 
ATOM      4  C   UNL     1      -1.765  -0.008  -0.831  1.00  0.00     0.258 C 
ATOM      5  O   UNL     1      -1.448  -0.316  -2.011  1.00  0.00    -0.271 OA
ATOM      6  C   UNL     1      -0.939  -0.315   0.390  1.00  0.00     0.147 C 
ATOM      7  C   UNL     1      -0.682  -1.829   0.597  1.00  0.00     0.048 C 
ATOM      8  C   UNL     1       0.847  -2.030   0.578  1.00  0.00     0.039 C 
ATOM      9  C   UNL     1       1.399  -0.661   0.436  1.00  0.00    -0.042 A 
ATOM     10  C   UNL     1       2.751  -0.308   0.404  1.00  0.00     0.004 A 
ATOM     11  C   UNL     1       3.093   1.045   0.264  1.00  0.00     0.000 A 
ATOM     12  C   UNL     1       2.087   2.022   0.158  1.00  0.00     0.000 A 
ATOM     13  C   UNL     1       0.736   1.647   0.192  1.00  0.00     0.007 A 
ATOM     14  C   UNL     1       0.416   0.292   0.330  1.00  0.00    -0.010 A 
ATOM     15  N   UNL     1      -1.734   0.258   1.476  1.00  0.00    -0.319 N 
ATOM     16  H   UNL     1      -3.702   1.027  -1.157  1.00  0.00     0.174 HD
ATOM     17  H   UNL     1      -1.483   0.267   2.490  1.00  0.00     0.166 HD
ENDROOT
TORSDOF 0
