REMARK SMILES C=CCN=c1[nH]cnc2sc(SC)nc12
REMARK SMILES IDX 4 1 5 2 6 3 7 4 8 5 15 6 9 7 14 8 10 9 11 10 12 12 13 13
REMARK SMILES IDX 3 14 2 15 1 16
REMARK H PARENT 6 11
ROOT
ATOM      1  N   UNL     1      -1.705  -0.106   0.420  1.00  0.00    -0.262 NA
ENDROOT
BRANCH   1   2
ATOM      2  C   UNL     1      -0.996   0.991   0.411  1.00  0.00     0.155 A 
ATOM      3  N   UNL     1      -1.550   2.135   0.919  1.00  0.00    -0.329 N 
ATOM      4  C   UNL     1      -0.868   3.321   0.943  1.00  0.00     0.199 A 
ATOM      5  N   UNL     1       0.401   3.399   0.456  1.00  0.00    -0.226 NA
ATOM      6  C   UNL     1       0.318   1.070  -0.095  1.00  0.00     0.144 A 
ATOM      7  C   UNL     1       0.972   2.284  -0.051  1.00  0.00     0.149 A 
ATOM      8  N   UNL     1       1.046   0.061  -0.639  1.00  0.00    -0.224 NA
ATOM      9  S   UNL     1       2.511   2.143  -0.700  1.00  0.00    -0.087 S 
ATOM     10  C   UNL     1       2.272   0.497  -1.017  1.00  0.00     0.152 A 
ATOM     11  H   UNL     1      -2.523   2.113   1.302  1.00  0.00     0.169 HD
BRANCH  10  12
ATOM     12  S   UNL     1       3.496  -0.567  -1.771  1.00  0.00    -0.099 SA
ATOM     13  C   UNL     1       4.208  -1.069  -0.175  1.00  0.00     0.093 C 
ENDBRANCH  10  12
ENDBRANCH   1   2
BRANCH   1  14
ATOM     14  C   UNL     1      -1.316  -1.428  -0.066  1.00  0.00     0.171 C 
BRANCH  14  15
ATOM     15  C   UNL     1      -2.443  -2.393   0.150  1.00  0.00    -0.011 C 
ATOM     16  C   UNL     1      -3.597  -2.277  -0.512  1.00  0.00     0.006 C 
ENDBRANCH  14  15
ENDBRANCH   1  14
TORSDOF 4
