REMARK SMILES CC(C)(C)NC(=O)c1ccc(C(=O)NC(C)(C)C)cc1
REMARK SMILES IDX 8 1 9 2 10 3 11 4 19 5 20 6 6 7 5 8 7 10 2 11 1 12 3 13 4 14
REMARK SMILES IDX 12 15 14 16 13 17 15 19 16 20 17 21 18 22
REMARK H PARENT 5 9 14 18
ROOT
ATOM      1  C   UNL     1       1.421   0.926  -0.055  1.00  0.00     0.039 A 
ATOM      2  C   UNL     1       0.716   2.127  -0.245  1.00  0.00     0.014 A 
ATOM      3  C   UNL     1      -0.681   2.138  -0.247  1.00  0.00     0.014 A 
ATOM      4  C   UNL     1      -1.406   0.949  -0.060  1.00  0.00     0.039 A 
ATOM      5  C   UNL     1      -0.701  -0.248   0.156  1.00  0.00     0.014 A 
ATOM      6  C   UNL     1       0.697  -0.259   0.158  1.00  0.00     0.014 A 
ENDROOT
BRANCH   1   7
ATOM      7  C   UNL     1       2.904   0.929  -0.048  1.00  0.00     0.251 C 
ATOM      8  N   UNL     1       3.646  -0.256  -0.399  1.00  0.00    -0.347 N 
ATOM      9  H   UNL     1       3.119  -1.031  -0.861  1.00  0.00     0.164 HD
ATOM     10  O   UNL     1       3.512   1.992   0.252  1.00  0.00    -0.269 OA
BRANCH   8  11
ATOM     11  C   UNL     1       5.092  -0.445  -0.166  1.00  0.00     0.032 C 
ATOM     12  C   UNL     1       5.482  -1.882  -0.571  1.00  0.00     0.034 C 
ATOM     13  C   UNL     1       5.906   0.542  -1.025  1.00  0.00     0.034 C 
ATOM     14  C   UNL     1       5.421  -0.253   1.328  1.00  0.00     0.034 C 
ENDBRANCH   8  11
ENDBRANCH   1   7
BRANCH   4  15
ATOM     15  C   UNL     1      -2.889   0.975  -0.057  1.00  0.00     0.251 C 
ATOM     16  N   UNL     1      -3.649  -0.198  -0.411  1.00  0.00    -0.347 N 
ATOM     17  O   UNL     1      -3.481   2.047   0.240  1.00  0.00    -0.269 OA
ATOM     18  H   UNL     1      -3.132  -0.981  -0.872  1.00  0.00     0.164 HD
BRANCH  16  19
ATOM     19  C   UNL     1      -5.099  -0.364  -0.183  1.00  0.00     0.032 C 
ATOM     20  C   UNL     1      -5.430  -0.167   1.310  1.00  0.00     0.034 C 
ATOM     21  C   UNL     1      -5.893   0.636  -1.045  1.00  0.00     0.034 C 
ATOM     22  C   UNL     1      -5.510  -1.794  -0.589  1.00  0.00     0.034 C 
ENDBRANCH  16  19
ENDBRANCH   4  15
TORSDOF 4
