REMARK SMILES CCOC(=O)c1cc(-c2cccnc2)nc2c(Cl)cc(Cl)cc12
REMARK SMILES IDX 3 1 2 2 1 3 4 4 5 5 6 6 7 7 23 8 8 9 22 10 16 11 15 12 20 13
REMARK SMILES IDX 17 14 19 15 21 16 18 17 9 18 10 19 14 20 11 21 13 22 12 23
REMARK H PARENT
ROOT
ATOM      1  O   UNL     1      -2.331  -1.044   1.517  1.00  0.00    -0.462 OA
ENDROOT
BRANCH   1   2
ATOM      2  C   UNL     1      -3.519  -1.316   2.259  1.00  0.00     0.230 C 
ATOM      3  C   UNL     1      -4.707  -1.502   1.322  1.00  0.00     0.049 C 
ENDBRANCH   1   2
BRANCH   1   4
ATOM      4  C   UNL     1      -2.063   0.191   0.915  1.00  0.00     0.338 C 
ATOM      5  O   UNL     1      -2.844   1.166   1.091  1.00  0.00    -0.246 OA
BRANCH   4   6
ATOM      6  C   UNL     1      -0.817   0.362   0.134  1.00  0.00     0.071 A 
ATOM      7  C   UNL     1       0.346  -0.250   0.625  1.00  0.00     0.045 A 
ATOM      8  C   UNL     1      -0.743   1.133  -1.055  1.00  0.00     0.018 A 
ATOM      9  C   UNL     1       1.574  -0.070  -0.030  1.00  0.00     0.073 A 
ATOM     10  C   UNL     1      -1.877   1.704  -1.671  1.00  0.00     0.031 A 
ATOM     11  C   UNL     1       0.523   1.308  -1.669  1.00  0.00     0.090 A 
ATOM     12  N   UNL     1       1.623   0.711  -1.141  1.00  0.00    -0.246 NA
ATOM     13  C   UNL     1      -1.746   2.468  -2.834  1.00  0.00     0.043 A 
ATOM     14  C   UNL     1       0.644   2.082  -2.835  1.00  0.00     0.068 A 
ATOM     15  C   UNL     1      -0.489   2.663  -3.408  1.00  0.00     0.043 A 
ATOM     16  Cl  UNL     1      -3.166   3.176  -3.583  1.00  0.00    -0.084 Cl
ATOM     17  Cl  UNL     1       2.209   2.323  -3.600  1.00  0.00    -0.082 Cl
BRANCH   9  18
ATOM     18  C   UNL     1       2.828  -0.688   0.475  1.00  0.00     0.019 A 
ATOM     19  C   UNL     1       4.067  -0.076   0.221  1.00  0.00     0.013 A 
ATOM     20  C   UNL     1       2.821  -1.901   1.190  1.00  0.00     0.121 A 
ATOM     21  C   UNL     1       5.248  -0.656   0.687  1.00  0.00     0.021 A 
ATOM     22  N   UNL     1       3.987  -2.446   1.629  1.00  0.00    -0.264 NA
ATOM     23  C   UNL     1       5.187  -1.853   1.400  1.00  0.00     0.111 A 
ENDBRANCH   9  18
ENDBRANCH   4   6
ENDBRANCH   1   4
TORSDOF 4
