REMARK SMILES O=C(Nc1ccc2ccccc2c1)c1cccc(F)c1
REMARK SMILES IDX 14 1 15 2 16 3 17 4 18 5 19 6 20 7 2 8 3 9 1 10 4 12 5 13
REMARK SMILES IDX 13 14 6 15 12 16 7 17 11 18 8 19 10 20 9 21
REMARK H PARENT 3 11
ROOT
ATOM      1  C   UNL     1      -3.108   0.018  -0.002  1.00  0.00     0.043 A 
ATOM      2  C   UNL     1      -3.701   1.259   0.303  1.00  0.00     0.014 A 
ATOM      3  C   UNL     1      -5.074   1.343   0.556  1.00  0.00     0.004 A 
ATOM      4  C   UNL     1      -5.870   0.197   0.503  1.00  0.00     0.039 A 
ATOM      5  C   UNL     1      -5.296  -1.037   0.189  1.00  0.00     0.124 A 
ATOM      6  F   UNL     1      -6.070  -2.148   0.132  1.00  0.00    -0.207 F 
ATOM      7  C   UNL     1      -3.924  -1.127  -0.067  1.00  0.00     0.053 A 
ENDROOT
BRANCH   1   8
ATOM      8  C   UNL     1      -1.656  -0.098  -0.281  1.00  0.00     0.255 C 
ATOM      9  N   UNL     1      -0.704   0.797   0.326  1.00  0.00    -0.322 N 
ATOM     10  O   UNL     1      -1.258  -0.997  -1.071  1.00  0.00    -0.269 OA
ATOM     11  H   UNL     1      -1.049   1.619   0.868  1.00  0.00     0.170 HD
BRANCH   9  12
ATOM     12  C   UNL     1       0.720   0.671   0.174  1.00  0.00     0.042 A 
ATOM     13  C   UNL     1       1.503   1.830   0.070  1.00  0.00     0.027 A 
ATOM     14  C   UNL     1       1.350  -0.586   0.193  1.00  0.00     0.034 A 
ATOM     15  C   UNL     1       2.891   1.744  -0.056  1.00  0.00     0.011 A 
ATOM     16  C   UNL     1       2.745  -0.684   0.067  1.00  0.00    -0.016 A 
ATOM     17  C   UNL     1       3.522   0.492  -0.063  1.00  0.00    -0.018 A 
ATOM     18  C   UNL     1       3.378  -1.937   0.074  1.00  0.00     0.009 A 
ATOM     19  C   UNL     1       4.917   0.393  -0.188  1.00  0.00     0.009 A 
ATOM     20  C   UNL     1       4.768  -2.022  -0.051  1.00  0.00     0.001 A 
ATOM     21  C   UNL     1       5.534  -0.861  -0.183  1.00  0.00     0.001 A 
ENDBRANCH   9  12
ENDBRANCH   1   8
TORSDOF 2
