REMARK SMILES NC(=O)Nc1n[nH]c(-c2ccccc2)n1
REMARK SMILES IDX 7 1 6 2 5 3 15 4 8 5 9 7 10 8 14 9 11 10 13 11 12 12 4 13
REMARK SMILES IDX 2 14 1 15 3 17
REMARK H PARENT 7 6 4 16 1 18 1 19
ROOT
ATOM      1  N   UNL     1      -0.012  -1.946   0.637  1.00  0.00    -0.257 N 
ATOM      2  N   UNL     1       1.296  -2.124   0.653  1.00  0.00    -0.134 NA
ATOM      3  C   UNL     1       1.827  -0.955   0.250  1.00  0.00     0.250 A 
ATOM      4  N   UNL     1       0.892  -0.021  -0.027  1.00  0.00    -0.192 NA
ATOM      5  C   UNL     1      -0.255  -0.684   0.229  1.00  0.00     0.157 A 
ATOM      6  H   UNL     1      -0.700  -2.683   0.903  1.00  0.00     0.192 HD
ENDROOT
BRANCH   5   7
ATOM      7  C   UNL     1      -1.601  -0.077   0.073  1.00  0.00     0.019 A 
ATOM      8  C   UNL     1      -2.774  -0.806   0.353  1.00  0.00     0.012 A 
ATOM      9  C   UNL     1      -1.720   1.256  -0.363  1.00  0.00     0.012 A 
ATOM     10  C   UNL     1      -4.031  -0.212   0.198  1.00  0.00     0.001 A 
ATOM     11  C   UNL     1      -2.979   1.845  -0.515  1.00  0.00     0.001 A 
ATOM     12  C   UNL     1      -4.134   1.111  -0.235  1.00  0.00     0.000 A 
ENDBRANCH   5   7
BRANCH   3  13
ATOM     13  N   UNL     1       3.240  -0.742   0.133  1.00  0.00    -0.275 N 
ATOM     14  C   UNL     1       3.831   0.494  -0.294  1.00  0.00     0.319 C 
ATOM     15  N   UNL     1       5.250   0.611  -0.379  1.00  0.00    -0.351 N 
ATOM     16  H   UNL     1       3.873  -1.536   0.374  1.00  0.00     0.175 HD
ATOM     17  O   UNL     1       3.110   1.484  -0.596  1.00  0.00    -0.249 OA
ATOM     18  H   UNL     1       5.689   1.507  -0.689  1.00  0.00     0.161 HD
ATOM     19  H   UNL     1       5.865  -0.196  -0.133  1.00  0.00     0.161 HD
ENDBRANCH   3  13
TORSDOF 2
