REMARK SMILES CCOc1cccc2cc(C(N)=O)c(=N)oc12
REMARK SMILES IDX 4 1 5 2 6 3 7 4 8 5 9 6 10 7 14 8 16 9 17 10 3 11 2 12 1 13
REMARK SMILES IDX 15 14 11 16 12 17 13 18
REMARK H PARENT 15 15 12 19 12 20
ROOT
ATOM      1  C   UNL     1      -1.055  -0.643  -0.826  1.00  0.00     0.162 A 
ATOM      2  C   UNL     1      -1.427  -1.942  -0.426  1.00  0.00     0.050 A 
ATOM      3  C   UNL     1      -0.657  -2.644   0.506  1.00  0.00     0.005 A 
ATOM      4  C   UNL     1       0.492  -2.066   1.050  1.00  0.00     0.012 A 
ATOM      5  C   UNL     1       0.875  -0.776   0.660  1.00  0.00     0.022 A 
ATOM      6  C   UNL     1       2.021  -0.169   1.181  1.00  0.00     0.031 A 
ATOM      7  C   UNL     1       2.380   1.123   0.770  1.00  0.00     0.102 A 
ATOM      8  C   UNL     1       1.553   1.769  -0.178  1.00  0.00     0.225 A 
ATOM      9  O   UNL     1       0.469   1.157  -0.653  1.00  0.00    -0.434 OA
ATOM     10  C   UNL     1       0.102  -0.065  -0.280  1.00  0.00     0.178 A 
ENDROOT
BRANCH   1  11
ATOM     11  O   UNL     1      -1.794   0.102  -1.761  1.00  0.00    -0.490 OA
BRANCH  11  12
ATOM     12  C   UNL     1      -3.046  -0.281  -2.329  1.00  0.00     0.226 C 
ATOM     13  C   UNL     1      -4.177  -0.091  -1.323  1.00  0.00     0.049 C 
ENDBRANCH  11  12
ENDBRANCH   1  11
BRANCH   8  14
ATOM     14  N   UNL     1       1.827   2.966  -0.588  1.00  0.00    -0.267 NA
ATOM     15  H   UNL     1       1.220   3.454  -1.285  1.00  0.00     0.191 HD
ENDBRANCH   8  14
BRANCH   7  16
ATOM     16  C   UNL     1       3.607   1.762   1.314  1.00  0.00     0.254 C 
ATOM     17  N   UNL     1       4.070   1.467   2.634  1.00  0.00    -0.365 N 
ATOM     18  O   UNL     1       4.258   2.579   0.609  1.00  0.00    -0.269 OA
ATOM     19  H   UNL     1       3.500   0.898   3.297  1.00  0.00     0.159 HD
ATOM     20  H   UNL     1       4.962   1.885   2.980  1.00  0.00     0.159 HD
ENDBRANCH   7  16
TORSDOF 4
