REMARK SMILES COc1cc2c(=O)n3c4c(cccc4c2cc1OC)CC3
REMARK SMILES IDX 3 1 4 2 5 3 6 4 7 5 8 6 9 7 10 8 11 9 12 10 13 11 14 12
REMARK SMILES IDX 15 13 16 14 17 15 20 16 21 17 2 18 1 19 18 20 19 21
REMARK H PARENT
ROOT
ATOM      1  C   UNL     1       2.707   0.897   0.034  1.00  0.00     0.161 A 
ATOM      2  C   UNL     1       1.533   1.668   0.058  1.00  0.00     0.065 A 
ATOM      3  C   UNL     1       0.268   1.057   0.036  1.00  0.00     0.052 A 
ATOM      4  C   UNL     1      -0.915   1.839   0.061  1.00  0.00     0.259 A 
ATOM      5  O   UNL     1      -0.864   3.099   0.103  1.00  0.00    -0.269 OA
ATOM      6  N   UNL     1      -2.121   1.212   0.038  1.00  0.00    -0.307 N 
ATOM      7  C   UNL     1      -2.222  -0.117  -0.007  1.00  0.00     0.055 A 
ATOM      8  C   UNL     1      -3.511  -0.554  -0.024  1.00  0.00    -0.022 A 
ATOM      9  C   UNL     1      -3.801  -1.916  -0.070  1.00  0.00     0.006 A 
ATOM     10  C   UNL     1      -2.728  -2.825  -0.099  1.00  0.00     0.001 A 
ATOM     11  C   UNL     1      -1.393  -2.364  -0.082  1.00  0.00     0.011 A 
ATOM     12  C   UNL     1      -1.118  -0.972  -0.034  1.00  0.00     0.007 A 
ATOM     13  C   UNL     1       0.171  -0.369  -0.012  1.00  0.00     0.000 A 
ATOM     14  C   UNL     1       1.361  -1.126  -0.036  1.00  0.00     0.060 A 
ATOM     15  C   UNL     1       2.621  -0.499  -0.013  1.00  0.00     0.161 A 
ATOM     16  C   UNL     1      -4.436   0.616   0.014  1.00  0.00     0.059 C 
ATOM     17  C   UNL     1      -3.453   1.817   0.056  1.00  0.00     0.131 C 
ENDROOT
BRANCH   1  18
ATOM     18  O   UNL     1       3.983   1.482   0.056  1.00  0.00    -0.493 OA
ATOM     19  C   UNL     1       4.231   2.884   0.103  1.00  0.00     0.278 C 
ENDBRANCH   1  18
BRANCH  15  20
ATOM     20  O   UNL     1       3.819  -1.233  -0.036  1.00  0.00    -0.493 OA
ATOM     21  C   UNL     1       3.900  -2.654  -0.084  1.00  0.00     0.278 C 
ENDBRANCH  15  20
TORSDOF 2
