REMARK SMILES CCOc1cc2c(Cl)ncnc2c(OCC)c1OCC
REMARK SMILES IDX 4 1 5 2 6 3 7 4 8 5 9 6 10 7 11 8 12 9 13 10 17 11 3 12 2 13
REMARK SMILES IDX 1 14 18 15 19 16 20 17 14 18 15 19 16 20
REMARK H PARENT
ROOT
ATOM      1  C   UNL     1       0.715  -0.568  -0.177  1.00  0.00     0.165 A 
ATOM      2  C   UNL     1       0.549  -1.548  -1.173  1.00  0.00     0.064 A 
ATOM      3  C   UNL     1      -0.662  -1.672  -1.862  1.00  0.00     0.045 A 
ATOM      4  C   UNL     1      -0.865  -2.636  -2.871  1.00  0.00     0.140 A 
ATOM      5  Cl  UNL     1       0.393  -3.762  -3.369  1.00  0.00    -0.061 Cl
ATOM      6  N   UNL     1      -2.070  -2.714  -3.493  1.00  0.00    -0.224 NA
ATOM      7  C   UNL     1      -3.089  -1.882  -3.163  1.00  0.00     0.224 A 
ATOM      8  N   UNL     1      -2.917  -0.947  -2.196  1.00  0.00    -0.232 NA
ATOM      9  C   UNL     1      -1.733  -0.818  -1.538  1.00  0.00     0.121 A 
ATOM     10  C   UNL     1      -1.597   0.159  -0.541  1.00  0.00     0.191 A 
ATOM     11  C   UNL     1      -0.351   0.321   0.120  1.00  0.00     0.205 A 
ENDROOT
BRANCH   1  12
ATOM     12  O   UNL     1       1.918  -0.472   0.539  1.00  0.00    -0.490 OA
BRANCH  12  13
ATOM     13  C   UNL     1       3.079  -1.266   0.312  1.00  0.00     0.226 C 
ATOM     14  C   UNL     1       4.183  -0.825   1.259  1.00  0.00     0.049 C 
ENDBRANCH  12  13
ENDBRANCH   1  12
BRANCH  11  15
ATOM     15  O   UNL     1      -0.221   1.370   1.050  1.00  0.00    -0.487 OA
BRANCH  15  16
ATOM     16  C   UNL     1       0.975   2.025   1.476  1.00  0.00     0.226 C 
ATOM     17  C   UNL     1       1.680   2.708   0.307  1.00  0.00     0.049 C 
ENDBRANCH  15  16
ENDBRANCH  11  15
BRANCH  10  18
ATOM     18  O   UNL     1      -2.732   0.955  -0.277  1.00  0.00    -0.488 OA
BRANCH  18  19
ATOM     19  C   UNL     1      -3.034   1.676   0.919  1.00  0.00     0.226 C 
ATOM     20  C   UNL     1      -3.171   0.735   2.112  1.00  0.00     0.049 C 
ENDBRANCH  18  19
ENDBRANCH  10  18
TORSDOF 6
