REMARK SMILES O=[N+]([O-])c1ccc2nc(SC=C(O)c3ccc4ccccc4c3)sc2c1
REMARK SMILES IDX 11 1 12 2 13 3 14 5 15 6 23 7 16 8 22 9 17 10 21 11 18 12
REMARK SMILES IDX 20 13 19 14 10 15 9 16 8 17 24 18 7 19 25 20 6 21 26 22 5 23
REMARK SMILES IDX 4 24 2 25 1 26 3 27
REMARK H PARENT 13 4
ROOT
ATOM      1  C   UNL     1      -0.753  -2.211  -2.444  1.00  0.00     0.095 C 
ENDROOT
BRANCH   1   2
ATOM      2  C   UNL     1      -1.099  -0.937  -2.694  1.00  0.00     0.129 C 
BRANCH   2   3
ATOM      3  O   UNL     1      -0.918  -0.415  -3.976  1.00  0.00    -0.507 OA
ATOM      4  H   UNL     1      -0.549  -0.973  -4.737  1.00  0.00     0.293 HD
ENDBRANCH   2   3
BRANCH   2   5
ATOM      5  C   UNL     1      -1.624  -0.033  -1.650  1.00  0.00     0.017 A 
ATOM      6  C   UNL     1      -1.003   1.208  -1.440  1.00  0.00     0.012 A 
ATOM      7  C   UNL     1      -2.753  -0.378  -0.889  1.00  0.00     0.020 A 
ATOM      8  C   UNL     1      -1.471   2.078  -0.453  1.00  0.00     0.009 A 
ATOM      9  C   UNL     1      -3.231   0.489   0.104  1.00  0.00    -0.018 A 
ATOM     10  C   UNL     1      -2.580   1.726   0.329  1.00  0.00    -0.018 A 
ATOM     11  C   UNL     1      -4.351   0.143   0.878  1.00  0.00     0.009 A 
ATOM     12  C   UNL     1      -3.057   2.591   1.326  1.00  0.00     0.009 A 
ATOM     13  C   UNL     1      -4.816   1.014   1.867  1.00  0.00     0.001 A 
ATOM     14  C   UNL     1      -4.170   2.233   2.092  1.00  0.00     0.001 A 
ENDBRANCH   2   5
ENDBRANCH   1   2
BRANCH   1  15
ATOM     15  S   UNL     1      -0.830  -2.967  -0.814  1.00  0.00    -0.063 SA
BRANCH  15  16
ATOM     16  C   UNL     1       0.722  -2.241  -0.306  1.00  0.00     0.155 A 
ATOM     17  N   UNL     1       0.804  -1.048   0.330  1.00  0.00    -0.229 NA
ATOM     18  S   UNL     1       2.238  -2.942  -0.574  1.00  0.00    -0.107 S 
ATOM     19  C   UNL     1       2.097  -0.726   0.584  1.00  0.00     0.083 A 
ATOM     20  C   UNL     1       3.031  -1.654   0.156  1.00  0.00     0.062 A 
ATOM     21  C   UNL     1       2.506   0.443   1.222  1.00  0.00     0.037 A 
ATOM     22  C   UNL     1       4.398  -1.469   0.343  1.00  0.00     0.107 A 
ATOM     23  C   UNL     1       3.879   0.657   1.427  1.00  0.00     0.088 A 
ATOM     24  C   UNL     1       4.837  -0.293   0.994  1.00  0.00     0.270 A 
BRANCH  24  25
ATOM     25  N   UNL     1       6.239  -0.063   1.220  1.00  0.00     0.062 N 
ATOM     26  O   UNL     1       7.092  -0.882   0.817  1.00  0.00    -0.258 OA
ATOM     27  O   UNL     1       6.662   1.046   1.916  1.00  0.00    -0.258 OA
ENDBRANCH  24  25
ENDBRANCH  15  16
ENDBRANCH   1  15
TORSDOF 6
