REMARK SMILES N#CCCCC[NH+]1CCCC1
REMARK SMILES IDX 5 1 6 2 7 3 8 4 11 5 9 6 10 7 4 9 3 10 2 11 1 12
REMARK H PARENT 7 8
ROOT
ATOM      1  C   UNL     1       1.309  -0.329  -1.004  1.00  0.00     0.062 C 
ENDROOT
BRANCH   1   2
ATOM      2  C   UNL     1       0.441   0.074   0.203  1.00  0.00     0.262 C 
BRANCH   2   3
ATOM      3  N   UNL     1      -0.960   0.340  -0.195  1.00  0.00    -0.335 N 
ATOM      4  C   UNL     1      -1.700  -0.876  -0.572  1.00  0.00     0.262 C 
ATOM      5  C   UNL     1      -1.726   0.932   0.908  1.00  0.00     0.262 C 
ATOM      6  C   UNL     1      -3.164  -0.648  -0.210  1.00  0.00     0.067 C 
ATOM      7  C   UNL     1      -3.186   0.603   0.652  1.00  0.00     0.067 C 
ATOM      8  H   UNL     1      -0.973   1.012  -1.000  1.00  0.00     0.348 HD
ENDBRANCH   2   3
ENDBRANCH   1   2
BRANCH   1   9
ATOM      9  C   UNL     1       2.731  -0.765  -0.605  1.00  0.00     0.021 C 
BRANCH   9  10
ATOM     10  C   UNL     1       3.618   0.389  -0.108  1.00  0.00     0.120 C 
BRANCH  10  11
ATOM     11  C   UNL     1       3.436   0.634   1.328  1.00  0.00     0.062 C 
ATOM     12  N   UNL     1       3.292   0.828   2.460  1.00  0.00    -0.198 NA
ENDBRANCH  10  11
ENDBRANCH   9  10
ENDBRANCH   1   9
TORSDOF 5
