REMARK SMILES NS(=O)(=O)c1cc2c(cc1Cl)N[C@@H](CC1CCCC1)NS2(=O)=O
REMARK SMILES IDX 5 1 6 2 7 3 8 4 9 5 10 6 11 7 12 8 13 9 20 10 21 11 22 12
REMARK SMILES IDX 23 13 2 16 3 17 4 18 1 19 14 22 15 23 16 24 19 25 17 26
REMARK SMILES IDX 18 27
REMARK H PARENT 12 14 20 15 1 20 1 21
ROOT
ATOM      1  C   UNL     1       0.535   3.115  -2.295  1.00  0.00     0.102 A 
ATOM      2  C   UNL     1       1.624   2.279  -2.016  1.00  0.00     0.047 A 
ATOM      3  C   UNL     1       1.459   1.129  -1.232  1.00  0.00     0.107 A 
ATOM      4  C   UNL     1       0.200   0.766  -0.743  1.00  0.00     0.057 A 
ATOM      5  C   UNL     1      -0.895   1.599  -1.030  1.00  0.00     0.049 A 
ATOM      6  C   UNL     1      -0.736   2.781  -1.775  1.00  0.00     0.063 A 
ATOM      7  Cl  UNL     1      -2.122   3.859  -1.963  1.00  0.00    -0.083 Cl
ATOM      8  N   UNL     1       0.066  -0.361   0.142  1.00  0.00    -0.368 N 
ATOM      9  C   UNL     1       1.069  -1.438   0.282  1.00  0.00     0.162 C 
ATOM     10  N   UNL     1       2.409  -0.873   0.543  1.00  0.00    -0.190 NA
ATOM     11  S   UNL     1       2.878   0.285  -0.677  1.00  0.00     0.244 S 
ATOM     12  O   UNL     1       3.832   1.256  -0.040  1.00  0.00    -0.207 OA
ATOM     13  O   UNL     1       3.554  -0.395  -1.840  1.00  0.00    -0.207 OA
ATOM     14  H   UNL     1      -0.748  -0.358   0.804  1.00  0.00     0.162 HD
ATOM     15  H   UNL     1       3.105  -1.662   0.485  1.00  0.00     0.143 HD
ENDROOT
BRANCH   1  16
ATOM     16  S   UNL     1       0.782   4.591  -3.237  1.00  0.00     0.239 S 
ATOM     17  O   UNL     1      -0.270   4.698  -4.306  1.00  0.00    -0.207 OA
ATOM     18  O   UNL     1       2.126   4.545  -3.917  1.00  0.00    -0.207 OA
BRANCH  16  19
ATOM     19  N   UNL     1       0.731   5.980  -2.198  1.00  0.00    -0.225 NA
ATOM     20  H   UNL     1       1.134   6.776  -2.740  1.00  0.00     0.137 HD
ATOM     21  H   UNL     1      -0.276   6.202  -2.027  1.00  0.00     0.137 HD
ENDBRANCH  16  19
ENDBRANCH   1  16
BRANCH   9  22
ATOM     22  C   UNL     1       1.077  -2.362  -0.977  1.00  0.00     0.045 C 
BRANCH  22  23
ATOM     23  C   UNL     1       0.866  -3.872  -0.695  1.00  0.00    -0.008 C 
ATOM     24  C   UNL     1       0.995  -4.640  -2.026  1.00  0.00     0.004 C 
ATOM     25  C   UNL     1       1.940  -4.492   0.207  1.00  0.00     0.004 C 
ATOM     26  C   UNL     1       2.378  -5.292  -2.025  1.00  0.00     0.000 C 
ATOM     27  C   UNL     1       3.070  -4.878  -0.732  1.00  0.00     0.000 C 
ENDBRANCH  22  23
ENDBRANCH   9  22
TORSDOF 4
