REMARK SMILES Cn1c(=O)c2c(nc(N3CCOCC3)n2C)n(C)c1=O
REMARK SMILES IDX 1 1 2 2 3 3 4 4 5 5 6 6 7 7 8 8 15 9 16 10 17 11 18 12 19 13
REMARK SMILES IDX 20 14 9 15 10 16 14 17 11 18 13 19 12 20
REMARK H PARENT
ROOT
ATOM      1  C   UNL     1       1.952   6.024  -1.279  1.00  0.00     0.159 C 
ATOM      2  N   UNL     1       0.983   4.920  -1.391  1.00  0.00    -0.261 N 
ATOM      3  C   UNL     1       0.566   4.257  -0.258  1.00  0.00     0.282 A 
ATOM      4  O   UNL     1       0.972   4.603   0.885  1.00  0.00    -0.267 OA
ATOM      5  C   UNL     1      -0.318   3.194  -0.404  1.00  0.00     0.153 A 
ATOM      6  C   UNL     1      -0.751   2.831  -1.635  1.00  0.00     0.170 A 
ATOM      7  N   UNL     1      -1.596   1.785  -1.559  1.00  0.00    -0.194 NA
ATOM      8  C   UNL     1      -1.652   1.544  -0.224  1.00  0.00     0.208 A 
ATOM      9  N   UNL     1      -0.866   2.376   0.514  1.00  0.00    -0.307 N 
ATOM     10  C   UNL     1      -0.634   2.360   1.959  1.00  0.00     0.154 C 
ATOM     11  N   UNL     1      -0.347   3.469  -2.767  1.00  0.00    -0.279 N 
ATOM     12  C   UNL     1      -0.796   3.010  -4.088  1.00  0.00     0.157 C 
ATOM     13  C   UNL     1       0.554   4.504  -2.640  1.00  0.00     0.332 A 
ATOM     14  O   UNL     1       0.996   5.075  -3.677  1.00  0.00    -0.247 OA
ENDROOT
BRANCH   8  15
ATOM     15  N   UNL     1      -2.490   0.519   0.335  1.00  0.00    -0.338 N 
ATOM     16  C   UNL     1      -2.584  -0.796  -0.301  1.00  0.00     0.148 C 
ATOM     17  C   UNL     1      -3.430   0.814   1.419  1.00  0.00     0.148 C 
ATOM     18  C   UNL     1      -4.053  -1.099  -0.610  1.00  0.00     0.181 C 
ATOM     19  C   UNL     1      -4.839   0.390   0.989  1.00  0.00     0.181 C 
ATOM     20  O   UNL     1      -4.850  -0.958   0.553  1.00  0.00    -0.378 OA
ENDBRANCH   8  15
TORSDOF 1
