REMARK SMILES CC(=O)Oc1c(C)c(OC(C)=O)c2c(c1C(C)=O)O[C@H]1CC(=O)[C@@H](C(C)=O)C(=O)[C@]21C
REMARK SMILES IDX 24 1 22 2 23 3 21 4 20 5 19 6 14 7 15 8 5 9 6 10 7 11 8 12
REMARK SMILES IDX 13 13 30 14 31 15 28 16 29 17 25 18 26 19 27 20 9 21 10 22
REMARK SMILES IDX 11 23 12 24 16 25 17 26 18 27 4 28 2 29 1 30 3 31
REMARK H PARENT
ROOT
ATOM      1  C   UNL     1       3.718  -0.802   1.416  1.00  0.00     0.190 C 
ATOM      2  C   UNL     1       3.837  -2.104   0.593  1.00  0.00     0.154 C 
ATOM      3  O   UNL     1       4.917  -2.674   0.543  1.00  0.00    -0.298 OA
ATOM      4  C   UNL     1       2.653  -2.753  -0.117  1.00  0.00     0.123 C 
ATOM      5  C   UNL     1       1.384  -2.011   0.277  1.00  0.00     0.198 C 
ATOM      6  O   UNL     1       0.167  -2.374  -0.355  1.00  0.00    -0.487 OA
ATOM      7  C   UNL     1      -0.666  -1.265  -0.264  1.00  0.00     0.142 A 
ATOM      8  C   UNL     1      -2.035  -1.227  -0.540  1.00  0.00     0.103 A 
ATOM      9  C   UNL     1      -2.708   0.012  -0.374  1.00  0.00     0.152 A 
ATOM     10  C   UNL     1      -1.980   1.185  -0.038  1.00  0.00     0.036 A 
ATOM     11  C   UNL     1      -2.714   2.492   0.123  1.00  0.00     0.052 C 
ATOM     12  C   UNL     1      -0.574   1.117   0.139  1.00  0.00     0.145 A 
ATOM     13  C   UNL     1       0.040  -0.138   0.111  1.00  0.00     0.055 A 
ATOM     14  C   UNL     1       1.502  -0.489   0.071  1.00  0.00     0.097 C 
ATOM     15  C   UNL     1       2.053  -0.081  -1.319  1.00  0.00     0.029 C 
ATOM     16  C   UNL     1       2.434  -0.014   1.156  1.00  0.00     0.165 C 
ATOM     17  O   UNL     1       2.178   0.981   1.817  1.00  0.00    -0.297 OA
ENDROOT
BRANCH   1  18
ATOM     18  C   UNL     1       4.913   0.093   1.169  1.00  0.00     0.147 C 
ATOM     19  C   UNL     1       5.823   0.506   2.289  1.00  0.00     0.089 C 
ATOM     20  O   UNL     1       5.147   0.497   0.040  1.00  0.00    -0.299 OA
ENDBRANCH   1  18
BRANCH  12  21
ATOM     21  O   UNL     1       0.207   2.260   0.347  1.00  0.00    -0.426 OA
BRANCH  21  22
ATOM     22  C   UNL     1       0.298   3.308  -0.575  1.00  0.00     0.308 C 
ATOM     23  C   UNL     1       1.041   4.547  -0.206  1.00  0.00     0.139 C 
ATOM     24  O   UNL     1      -0.244   3.220  -1.710  1.00  0.00    -0.252 OA
ENDBRANCH  21  22
ENDBRANCH  12  21
BRANCH   8  25
ATOM     25  C   UNL     1      -2.714  -2.452  -1.022  1.00  0.00     0.167 C 
ATOM     26  C   UNL     1      -3.711  -2.414  -2.140  1.00  0.00     0.094 C 
ATOM     27  O   UNL     1      -2.432  -3.565  -0.501  1.00  0.00    -0.294 OA
ENDBRANCH   8  25
BRANCH   9  28
ATOM     28  O   UNL     1      -4.098   0.104  -0.530  1.00  0.00    -0.425 OA
BRANCH  28  29
ATOM     29  C   UNL     1      -5.003  -0.597   0.273  1.00  0.00     0.308 C 
ATOM     30  C   UNL     1      -6.461  -0.515  -0.028  1.00  0.00     0.139 C 
ATOM     31  O   UNL     1      -4.606  -1.249   1.278  1.00  0.00    -0.252 OA
ENDBRANCH  28  29
ENDBRANCH   9  28
TORSDOF 6
