REMARK SMILES CC[NH+](CC)CCN1c2ccccc2Sc2ccc3ccccc3c21
REMARK SMILES IDX 3 1 2 3 1 4 4 5 5 6 6 7 7 8 8 9 9 10 25 11 10 12 14 13 24 14
REMARK SMILES IDX 16 15 11 16 13 17 15 18 23 19 19 20 17 21 12 22 22 23 18 24
REMARK SMILES IDX 20 25 21 26
REMARK H PARENT 3 2
ROOT
ATOM      1  N   UNL     1       3.080   0.027   0.319  1.00  0.00    -0.334 N 
ATOM      2  H   UNL     1       3.613   0.487   1.096  1.00  0.00     0.348 HD
ENDROOT
BRANCH   1   3
ATOM      3  C   UNL     1       3.725   0.451  -0.952  1.00  0.00     0.258 C 
ATOM      4  C   UNL     1       3.716   1.969  -1.164  1.00  0.00     0.071 C 
ENDBRANCH   1   3
BRANCH   1   5
ATOM      5  C   UNL     1       3.255  -1.439   0.491  1.00  0.00     0.258 C 
ATOM      6  C   UNL     1       2.728  -1.963   1.832  1.00  0.00     0.071 C 
ENDBRANCH   1   5
BRANCH   1   7
ATOM      7  C   UNL     1       1.665   0.479   0.446  1.00  0.00     0.284 C 
BRANCH   7   8
ATOM      8  C   UNL     1       0.705  -0.089  -0.620  1.00  0.00     0.184 C 
BRANCH   8   9
ATOM      9  N   UNL     1      -0.656   0.413  -0.395  1.00  0.00    -0.333 N 
ATOM     10  C   UNL     1      -0.954   1.794  -0.665  1.00  0.00     0.055 A 
ATOM     11  C   UNL     1      -1.549  -0.281   0.502  1.00  0.00     0.063 A 
ATOM     12  C   UNL     1      -0.912   2.296  -1.973  1.00  0.00     0.027 A 
ATOM     13  C   UNL     1      -1.413   2.612   0.382  1.00  0.00     0.036 A 
ATOM     14  C   UNL     1      -2.107  -1.541   0.172  1.00  0.00     0.007 A 
ATOM     15  C   UNL     1      -1.992   0.391   1.659  1.00  0.00     0.037 A 
ATOM     16  C   UNL     1      -1.345   3.601  -2.233  1.00  0.00     0.002 A 
ATOM     17  C   UNL     1      -1.866   3.908   0.115  1.00  0.00     0.017 A 
ATOM     18  S   UNL     1      -1.308   2.004   2.071  1.00  0.00    -0.086 SA
ATOM     19  C   UNL     1      -1.813  -2.192  -1.043  1.00  0.00     0.011 A 
ATOM     20  C   UNL     1      -3.033  -2.145   1.064  1.00  0.00    -0.016 A 
ATOM     21  C   UNL     1      -2.931  -0.198   2.507  1.00  0.00     0.018 A 
ATOM     22  C   UNL     1      -1.830   4.401  -1.193  1.00  0.00     0.001 A 
ATOM     23  C   UNL     1      -2.368  -3.442  -1.331  1.00  0.00     0.001 A 
ATOM     24  C   UNL     1      -3.432  -1.468   2.226  1.00  0.00     0.010 A 
ATOM     25  C   UNL     1      -3.578  -3.404   0.763  1.00  0.00     0.009 A 
ATOM     26  C   UNL     1      -3.238  -4.051  -0.426  1.00  0.00     0.001 A 
ENDBRANCH   8   9
ENDBRANCH   7   8
ENDBRANCH   1   7
TORSDOF 5
