REMARK SMILES O=c1nc2c(ncn2-c2ccccc2)c(S)[nH]1
REMARK SMILES IDX 15 1 17 2 2 3 1 4 3 5 4 6 5 7 6 8 7 9 8 10 16 12 9 14 10 15
REMARK SMILES IDX 14 16 11 17 13 18 12 19
REMARK H PARENT 17 11 16 13
ROOT
ATOM      1  C   UNL     1      -3.359   0.161   0.853  1.00  0.00     0.103 A 
ATOM      2  N   UNL     1      -3.682   0.214  -0.475  1.00  0.00    -0.299 N 
ATOM      3  C   UNL     1      -2.709   0.163  -1.446  1.00  0.00     0.347 A 
ATOM      4  O   UNL     1      -3.030   0.223  -2.662  1.00  0.00    -0.246 OA
ATOM      5  N   UNL     1      -1.391   0.050  -1.100  1.00  0.00    -0.173 NA
ATOM      6  C   UNL     1      -1.079  -0.022   0.217  1.00  0.00     0.172 A 
ATOM      7  C   UNL     1      -2.017   0.043   1.188  1.00  0.00     0.138 A 
ATOM      8  N   UNL     1      -1.442   0.010   2.404  1.00  0.00    -0.232 NA
ATOM      9  C   UNL     1      -0.116  -0.073   2.108  1.00  0.00     0.207 A 
ATOM     10  N   UNL     1       0.141  -0.097   0.772  1.00  0.00    -0.283 N 
ATOM     11  H   UNL     1      -4.684   0.303  -0.756  1.00  0.00     0.172 HD
ENDROOT
BRANCH   1  12
ATOM     12  S   UNL     1      -4.630   0.253   2.112  1.00  0.00    -0.123 SA
ATOM     13  H   UNL     1      -4.545   1.657   2.169  1.00  0.00     0.109 HD
ENDBRANCH   1  12
BRANCH  10  14
ATOM     14  C   UNL     1       1.427  -0.166   0.128  1.00  0.00     0.049 A 
ATOM     15  C   UNL     1       1.584  -0.837  -1.099  1.00  0.00     0.027 A 
ATOM     16  C   UNL     1       2.554   0.426   0.729  1.00  0.00     0.027 A 
ATOM     17  C   UNL     1       2.837  -0.903  -1.715  1.00  0.00     0.002 A 
ATOM     18  C   UNL     1       3.805   0.359   0.108  1.00  0.00     0.002 A 
ATOM     19  C   UNL     1       3.947  -0.304  -1.113  1.00  0.00     0.000 A 
ENDBRANCH  10  14
TORSDOF 2
