REMARK SMILES CNc1cc([N+](=O)[O-])ccc1OCc1ccccc1
REMARK SMILES IDX 3 1 4 2 5 3 9 4 10 5 11 6 2 7 1 8 12 10 13 11 14 12 15 13
REMARK SMILES IDX 19 14 16 15 18 16 17 17 6 18 7 19 8 20
REMARK H PARENT 2 9
ROOT
ATOM      1  C   UNL     1      -1.768  -0.268   0.802  1.00  0.00     0.083 A 
ATOM      2  C   UNL     1      -3.177  -0.325   0.773  1.00  0.00     0.115 A 
ATOM      3  C   UNL     1      -3.888  -0.079  -0.413  1.00  0.00     0.271 A 
ATOM      4  C   UNL     1      -3.175   0.228  -1.582  1.00  0.00     0.089 A 
ATOM      5  C   UNL     1      -1.782   0.287  -1.568  1.00  0.00     0.056 A 
ATOM      6  C   UNL     1      -1.066   0.041  -0.382  1.00  0.00     0.143 A 
ENDROOT
BRANCH   1   7
ATOM      7  N   UNL     1      -1.038  -0.521   2.021  1.00  0.00    -0.385 N 
ATOM      8  C   UNL     1      -1.674  -0.848   3.293  1.00  0.00     0.139 C 
ATOM      9  H   UNL     1       0.006  -0.472   2.015  1.00  0.00     0.160 HD
ENDBRANCH   1   7
BRANCH   6  10
ATOM     10  O   UNL     1       0.337   0.096  -0.344  1.00  0.00    -0.487 OA
BRANCH  10  11
ATOM     11  C   UNL     1       1.170   0.396  -1.460  1.00  0.00     0.265 C 
BRANCH  11  12
ATOM     12  C   UNL     1       2.605   0.358  -1.025  1.00  0.00    -0.011 A 
ATOM     13  C   UNL     1       3.219   1.512  -0.509  1.00  0.00     0.007 A 
ATOM     14  C   UNL     1       3.325  -0.847  -1.063  1.00  0.00     0.007 A 
ATOM     15  C   UNL     1       4.544   1.466  -0.066  1.00  0.00     0.000 A 
ATOM     16  C   UNL     1       4.651  -0.889  -0.619  1.00  0.00     0.000 A 
ATOM     17  C   UNL     1       5.261   0.267  -0.123  1.00  0.00     0.000 A 
ENDBRANCH  11  12
ENDBRANCH  10  11
ENDBRANCH   6  10
BRANCH   3  18
ATOM     18  N   UNL     1      -5.327  -0.141  -0.426  1.00  0.00     0.062 N 
ATOM     19  O   UNL     1      -5.964   0.077  -1.478  1.00  0.00    -0.258 OA
ATOM     20  O   UNL     1      -6.026  -0.441   0.720  1.00  0.00    -0.258 OA
ENDBRANCH   3  18
TORSDOF 5
