REMARK SMILES Nc1n[nH]c(=Nc2ccccc2)[nH]1
REMARK SMILES IDX 4 1 3 2 2 3 13 4 5 5 6 8 7 9 8 10 12 11 9 12 11 13 10 14
REMARK SMILES IDX 1 15
REMARK H PARENT 4 6 13 7 1 16 1 17
ROOT
ATOM      1  N   UNL     1       2.224  -1.970   0.265  1.00  0.00    -0.243 N 
ATOM      2  N   UNL     1       3.365  -1.310   0.140  1.00  0.00    -0.136 NA
ATOM      3  C   UNL     1       3.021  -0.043  -0.165  1.00  0.00     0.218 A 
ATOM      4  N   UNL     1       1.686   0.131  -0.240  1.00  0.00    -0.294 N 
ATOM      5  C   UNL     1       1.222  -1.102   0.045  1.00  0.00     0.224 A 
ATOM      6  H   UNL     1       2.144  -2.986   0.491  1.00  0.00     0.194 HD
ATOM      7  H   UNL     1       1.170   0.998  -0.507  1.00  0.00     0.173 HD
ENDROOT
BRANCH   5   8
ATOM      8  N   UNL     1      -0.033  -1.451   0.052  1.00  0.00    -0.214 NA
BRANCH   8   9
ATOM      9  C   UNL     1      -1.157  -0.574  -0.108  1.00  0.00     0.067 A 
ATOM     10  C   UNL     1      -2.234  -0.987  -0.904  1.00  0.00     0.028 A 
ATOM     11  C   UNL     1      -1.249   0.640   0.598  1.00  0.00     0.028 A 
ATOM     12  C   UNL     1      -3.363  -0.174  -1.041  1.00  0.00     0.002 A 
ATOM     13  C   UNL     1      -2.380   1.451   0.459  1.00  0.00     0.002 A 
ATOM     14  C   UNL     1      -3.434   1.047  -0.365  1.00  0.00     0.000 A 
ENDBRANCH   8   9
ENDBRANCH   5   8
BRANCH   3  15
ATOM     15  N   UNL     1       3.968   0.994  -0.408  1.00  0.00    -0.368 N 
ATOM     16  H   UNL     1       3.646   1.957  -0.650  1.00  0.00     0.159 HD
ATOM     17  H   UNL     1       4.991   0.797  -0.345  1.00  0.00     0.159 HD
ENDBRANCH   3  15
TORSDOF 3
