REMARK SMILES Oc1ccc(N=c2cc[nH]c3cc(Cl)ccc23)cc1
REMARK SMILES IDX 5 1 4 2 3 3 2 4 19 5 18 6 6 7 7 8 10 9 9 10 11 11 8 12 12 13
REMARK SMILES IDX 17 14 13 15 16 16 15 17 14 19 1 20
REMARK H PARENT 10 18 1 21
ROOT
ATOM      1  C   UNL     1       1.861  -0.204  -0.009  1.00  0.00     0.064 A 
ATOM      2  C   UNL     1       2.803  -0.609  -0.963  1.00  0.00     0.032 A 
ATOM      3  C   UNL     1       4.149  -0.254  -0.822  1.00  0.00     0.048 A 
ATOM      4  C   UNL     1       4.567   0.487   0.292  1.00  0.00     0.115 A 
ATOM      5  C   UNL     1       3.635   0.864   1.264  1.00  0.00     0.048 A 
ATOM      6  C   UNL     1       2.290   0.510   1.123  1.00  0.00     0.032 A 
ENDROOT
BRANCH   1   7
ATOM      7  N   UNL     1       0.497  -0.630  -0.148  1.00  0.00    -0.248 NA
BRANCH   7   8
ATOM      8  C   UNL     1      -0.585   0.098  -0.049  1.00  0.00     0.074 A 
ATOM      9  N   UNL     1      -2.916   1.622   0.127  1.00  0.00    -0.361 N 
ATOM     10  C   UNL     1      -1.708   2.240   0.173  1.00  0.00     0.085 A 
ATOM     11  C   UNL     1      -3.022   0.271  -0.019  1.00  0.00     0.049 A 
ATOM     12  C   UNL     1      -0.530   1.500   0.081  1.00  0.00     0.047 A 
ATOM     13  C   UNL     1      -4.287  -0.334  -0.075  1.00  0.00     0.047 A 
ATOM     14  C   UNL     1      -1.853  -0.526  -0.117  1.00  0.00     0.024 A 
ATOM     15  C   UNL     1      -4.402  -1.718  -0.228  1.00  0.00     0.043 A 
ATOM     16  C   UNL     1      -1.988  -1.922  -0.270  1.00  0.00     0.014 A 
ATOM     17  C   UNL     1      -3.255  -2.509  -0.325  1.00  0.00     0.021 A 
ATOM     18  H   UNL     1      -3.777   2.212   0.199  1.00  0.00     0.166 HD
ATOM     19  Cl  UNL     1      -5.988  -2.464  -0.298  1.00  0.00    -0.084 Cl
ENDBRANCH   7   8
ENDBRANCH   1   7
BRANCH   4  20
ATOM     20  O   UNL     1       5.904   0.847   0.444  1.00  0.00    -0.508 OA
ATOM     21  H   UNL     1       6.604   0.588  -0.242  1.00  0.00     0.293 HD
ENDBRANCH   4  20
TORSDOF 3
