REMARK SMILES COc1cc([C@@H]2NC(=O)C(C#N)=C(Nc3cccc(C)c3)S2)ccc1O
REMARK SMILES IDX 6 1 7 2 8 3 9 4 10 5 13 6 22 7 5 9 3 10 4 11 25 12 24 13
REMARK SMILES IDX 23 14 2 15 1 16 26 17 14 19 15 21 16 22 21 23 17 24 19 25
REMARK SMILES IDX 18 26 20 27 11 28 12 29
REMARK H PARENT 7 8 26 18 14 20
ROOT
ATOM      1  C   UNL     1       1.379  -1.353  -0.406  1.00  0.00     0.177 C 
ATOM      2  N   UNL     1       1.142  -1.406  -1.848  1.00  0.00    -0.335 N 
ATOM      3  C   UNL     1      -0.170  -1.189  -2.382  1.00  0.00     0.265 C 
ATOM      4  O   UNL     1      -0.368  -1.340  -3.617  1.00  0.00    -0.268 OA
ATOM      5  C   UNL     1      -1.296  -0.835  -1.490  1.00  0.00     0.147 C 
ATOM      6  C   UNL     1      -1.068  -0.333  -0.257  1.00  0.00     0.099 C 
ATOM      7  S   UNL     1       0.591   0.148   0.260  1.00  0.00    -0.077 SA
ATOM      8  H   UNL     1       1.916  -1.663  -2.503  1.00  0.00     0.165 HD
ENDROOT
BRANCH   1   9
ATOM      9  C   UNL     1       2.858  -1.327  -0.101  1.00  0.00    -0.011 A 
ATOM     10  C   UNL     1       5.066  -0.311  -0.376  1.00  0.00     0.160 A 
ATOM     11  C   UNL     1       3.688  -0.343  -0.667  1.00  0.00     0.057 A 
ATOM     12  C   UNL     1       5.608  -1.272   0.490  1.00  0.00     0.157 A 
ATOM     13  C   UNL     1       4.782  -2.251   1.058  1.00  0.00     0.050 A 
ATOM     14  C   UNL     1       3.417  -2.278   0.767  1.00  0.00     0.011 A 
BRANCH  10  15
ATOM     15  O   UNL     1       5.925   0.655  -0.924  1.00  0.00    -0.493 OA
ATOM     16  C   UNL     1       5.512   1.689  -1.811  1.00  0.00     0.278 C 
ENDBRANCH  10  15
BRANCH  12  17
ATOM     17  O   UNL     1       6.971  -1.247   0.781  1.00  0.00    -0.504 OA
ATOM     18  H   UNL     1       7.393  -1.929   1.401  1.00  0.00     0.293 HD
ENDBRANCH  12  17
ENDBRANCH   1   9
BRANCH   6  19
ATOM     19  N   UNL     1      -2.127  -0.189   0.701  1.00  0.00    -0.349 N 
ATOM     20  H   UNL     1      -1.993  -0.645   1.631  1.00  0.00     0.167 HD
BRANCH  19  21
ATOM     21  C   UNL     1      -3.256   0.688   0.526  1.00  0.00     0.039 A 
ATOM     22  C   UNL     1      -3.266   1.686  -0.466  1.00  0.00     0.026 A 
ATOM     23  C   UNL     1      -4.361   0.564   1.383  1.00  0.00     0.029 A 
ATOM     24  C   UNL     1      -4.375   2.522  -0.613  1.00  0.00     0.002 A 
ATOM     25  C   UNL     1      -5.469   1.415   1.248  1.00  0.00    -0.049 A 
ATOM     26  C   UNL     1      -5.477   2.384   0.234  1.00  0.00     0.003 A 
ATOM     27  C   UNL     1      -6.665   1.243   2.137  1.00  0.00     0.044 C 
ENDBRANCH  19  21
ENDBRANCH   6  19
BRANCH   5  28
ATOM     28  C   UNL     1      -2.634  -1.176  -1.916  1.00  0.00     0.108 C 
ATOM     29  N   UNL     1      -3.706  -1.449  -2.257  1.00  0.00    -0.192 NA
ENDBRANCH   5  28
TORSDOF 6
