REMARK SMILES N=c1ncnc2n(C3CCCCC3)[nH]cc1-2
REMARK SMILES IDX 14 1 15 2 16 3 2 4 3 5 4 6 5 7 6 8 7 9 8 11 9 12 13 13 10 14
REMARK SMILES IDX 12 15 11 16 1 17
REMARK H PARENT 14 10 1 18
ROOT
ATOM      1  N   UNL     1       0.758   0.143  -1.954  1.00  0.00    -0.303 N 
ATOM      2  C   UNL     1       1.770  -0.357  -2.710  1.00  0.00     0.117 A 
ATOM      3  C   UNL     1       1.761  -1.732  -2.583  1.00  0.00     0.081 A 
ATOM      4  C   UNL     1       2.507  -2.792  -3.080  1.00  0.00     0.158 A 
ATOM      5  N   UNL     1       2.149  -4.051  -2.687  1.00  0.00    -0.217 NA
ATOM      6  C   UNL     1       1.096  -4.287  -1.834  1.00  0.00     0.226 A 
ATOM      7  N   UNL     1       0.348  -3.256  -1.333  1.00  0.00    -0.217 NA
ATOM      8  C   UNL     1       0.679  -2.000  -1.704  1.00  0.00     0.161 A 
ATOM      9  N   UNL     1       0.099  -0.843  -1.346  1.00  0.00    -0.267 N 
ATOM     10  H   UNL     1       0.528   1.157  -1.860  1.00  0.00     0.187 HD
ENDROOT
BRANCH   9  11
ATOM     11  C   UNL     1      -1.051  -0.671  -0.452  1.00  0.00     0.107 C 
ATOM     12  C   UNL     1      -0.652   0.162   0.779  1.00  0.00     0.027 C 
ATOM     13  C   UNL     1      -2.221  -0.011  -1.205  1.00  0.00     0.027 C 
ATOM     14  C   UNL     1      -1.854   0.376   1.708  1.00  0.00     0.002 C 
ATOM     15  C   UNL     1      -3.420   0.203  -0.272  1.00  0.00     0.002 C 
ATOM     16  C   UNL     1      -3.021   1.031   0.956  1.00  0.00     0.000 C 
ENDBRANCH   9  11
BRANCH   4  17
ATOM     17  N   UNL     1       3.506  -2.618  -3.885  1.00  0.00    -0.282 NA
ATOM     18  H   UNL     1       3.809  -1.671  -4.207  1.00  0.00     0.189 HD
ENDBRANCH   4  17
TORSDOF 2
