REMARK SMILES CCCCn1cnc2c(S)nc(=N)[nH]c21
REMARK SMILES IDX 4 1 5 2 9 3 11 4 8 5 12 6 15 7 7 8 14 9 6 10 10 12 13 14
REMARK SMILES IDX 3 16 2 17 1 18
REMARK H PARENT 14 11 10 13 13 15
ROOT
ATOM      1  C   UNL     1       1.097  -0.804  -1.578  1.00  0.00     0.125 C 
ENDROOT
BRANCH   1   2
ATOM      2  N   UNL     1      -0.129  -1.103  -0.836  1.00  0.00    -0.317 N 
ATOM      3  C   UNL     1      -3.139  -0.321   0.783  1.00  0.00     0.127 A 
ATOM      4  N   UNL     1      -3.262   1.018   0.545  1.00  0.00    -0.205 NA
ATOM      5  C   UNL     1      -2.028  -0.969   0.263  1.00  0.00     0.138 A 
ATOM      6  C   UNL     1      -2.322   1.708  -0.180  1.00  0.00     0.221 A 
ATOM      7  C   UNL     1      -1.113  -0.275  -0.454  1.00  0.00     0.143 A 
ATOM      8  N   UNL     1      -1.667  -2.261   0.372  1.00  0.00    -0.232 NA
ATOM      9  N   UNL     1      -1.229   1.057  -0.688  1.00  0.00    -0.309 N 
ATOM     10  C   UNL     1      -0.492  -2.303  -0.314  1.00  0.00     0.201 A 
ATOM     11  H   UNL     1      -0.506   1.576  -1.235  1.00  0.00     0.171 HD
BRANCH   3  12
ATOM     12  S   UNL     1      -4.375  -1.191   1.739  1.00  0.00    -0.121 SA
ATOM     13  H   UNL     1      -5.126  -1.496   0.588  1.00  0.00     0.110 HD
ENDBRANCH   3  12
BRANCH   6  14
ATOM     14  N   UNL     1      -2.468   2.978  -0.384  1.00  0.00    -0.267 NA
ATOM     15  H   UNL     1      -3.292   3.500  -0.009  1.00  0.00     0.191 HD
ENDBRANCH   6  14
ENDBRANCH   1   2
BRANCH   1  16
ATOM     16  C   UNL     1       2.286  -0.613  -0.628  1.00  0.00     0.022 C 
BRANCH  16  17
ATOM     17  C   UNL     1       2.139   0.641   0.243  1.00  0.00    -0.002 C 
ATOM     18  C   UNL     1       3.370   0.851   1.118  1.00  0.00     0.004 C 
ENDBRANCH  16  17
ENDBRANCH   1  16
TORSDOF 5
