REMARK SMILES CC(=O)Oc1c(C)c(OC(C)=O)c2c(c1C(C)=O)O[C@@H]1C=C(O)C(=C(C)O)C(=O)[C@@]21C
REMARK SMILES IDX 24 1 28 2 29 3 30 4 31 5 13 6 8 7 6 8 7 9 5 10 15 11 14 12
REMARK SMILES IDX 19 13 20 14 21 15 22 16 25 17 26 18 27 19 23 21 9 23 10 24
REMARK SMILES IDX 11 25 12 26 16 27 17 28 18 29 4 30 2 31 1 32 3 33
REMARK H PARENT 27 20 23 22
ROOT
ATOM      1  C   UNL     1      -3.681  -0.537  -0.425  1.00  0.00     0.097 C 
ATOM      2  C   UNL     1      -2.286  -0.910   0.032  1.00  0.00     0.184 C 
ATOM      3  O   UNL     1      -1.905  -2.106   0.143  1.00  0.00    -0.293 OA
ATOM      4  C   UNL     1      -1.361   0.233   0.367  1.00  0.00     0.104 C 
ATOM      5  C   UNL     1      -1.727   0.804   1.762  1.00  0.00     0.030 C 
ATOM      6  C   UNL     1       0.137   0.114   0.301  1.00  0.00     0.056 A 
ATOM      7  C   UNL     1       0.991  -0.779   0.955  1.00  0.00     0.145 A 
ATOM      8  C   UNL     1       2.381  -0.490   0.979  1.00  0.00     0.036 A 
ATOM      9  C   UNL     1       3.343  -1.402   1.697  1.00  0.00     0.052 C 
ATOM     10  C   UNL     1       2.877   0.666   0.318  1.00  0.00     0.152 A 
ATOM     11  C   UNL     1       1.981   1.600  -0.267  1.00  0.00     0.103 A 
ATOM     12  C   UNL     1       0.617   1.291  -0.248  1.00  0.00     0.143 A 
ATOM     13  O   UNL     1      -0.423   2.084  -0.726  1.00  0.00    -0.483 OA
ATOM     14  C   UNL     1      -1.557   1.237  -0.782  1.00  0.00     0.218 C 
ATOM     15  C   UNL     1      -2.929   1.820  -0.744  1.00  0.00     0.065 C 
ATOM     16  C   UNL     1      -3.959   0.951  -0.614  1.00  0.00     0.129 C 
ENDROOT
BRANCH   1  17
ATOM     17  C   UNL     1      -4.615  -1.494  -0.664  1.00  0.00     0.104 C 
ATOM     18  C   UNL     1      -5.981  -1.182  -1.214  1.00  0.00     0.087 C 
BRANCH  17  19
ATOM     19  O   UNL     1      -4.319  -2.833  -0.396  1.00  0.00    -0.512 OA
ATOM     20  H   UNL     1      -4.993  -3.573  -0.551  1.00  0.00     0.293 HD
ENDBRANCH  17  19
ENDBRANCH   1  17
BRANCH  16  21
ATOM     21  O   UNL     1      -5.263   1.445  -0.594  1.00  0.00    -0.507 OA
ATOM     22  H   UNL     1      -5.465   2.433  -0.700  1.00  0.00     0.293 HD
ENDBRANCH  16  21
BRANCH   7  23
ATOM     23  O   UNL     1       0.452  -1.894   1.607  1.00  0.00    -0.426 OA
BRANCH  23  24
ATOM     24  C   UNL     1       0.778  -3.212   1.270  1.00  0.00     0.308 C 
ATOM     25  C   UNL     1       0.249  -4.332   2.100  1.00  0.00     0.139 C 
ATOM     26  O   UNL     1       1.449  -3.467   0.233  1.00  0.00    -0.252 OA
ENDBRANCH  23  24
ENDBRANCH   7  23
BRANCH  11  27
ATOM     27  C   UNL     1       2.455   2.893  -0.818  1.00  0.00     0.167 C 
ATOM     28  C   UNL     1       1.801   3.529  -2.006  1.00  0.00     0.094 C 
ATOM     29  O   UNL     1       3.407   3.499  -0.255  1.00  0.00    -0.294 OA
ENDBRANCH  11  27
BRANCH  10  30
ATOM     30  O   UNL     1       4.263   0.871   0.272  1.00  0.00    -0.425 OA
BRANCH  30  31
ATOM     31  C   UNL     1       4.982   0.999  -0.922  1.00  0.00     0.308 C 
ATOM     32  C   UNL     1       6.436   1.323  -0.871  1.00  0.00     0.139 C 
ATOM     33  O   UNL     1       4.430   0.782  -2.035  1.00  0.00    -0.252 OA
ENDBRANCH  30  31
ENDBRANCH  10  30
TORSDOF 8
