REMARK SMILES CCC(C)(C)c1ccc(Oc2cccc(C(=O)[O-])c2)cc1
REMARK SMILES IDX 9 1 8 2 20 3 7 4 21 5 6 6 10 7 11 8 15 9 14 10 19 11 13 12
REMARK SMILES IDX 12 13 16 14 17 15 18 16 3 17 4 18 5 19 2 20 1 21
REMARK H PARENT
ROOT
ATOM      1  C   UNL     1       0.891   1.219   0.764  1.00  0.00     0.127 A 
ATOM      2  C   UNL     1      -0.145   1.349   1.689  1.00  0.00     0.047 A 
ATOM      3  C   UNL     1       0.675   0.471  -0.403  1.00  0.00     0.047 A 
ATOM      4  C   UNL     1      -1.369   0.709   1.481  1.00  0.00     0.008 A 
ATOM      5  C   UNL     1      -0.548  -0.171  -0.617  1.00  0.00     0.008 A 
ATOM      6  C   UNL     1      -1.590  -0.093   0.337  1.00  0.00    -0.042 A 
ENDROOT
BRANCH   1   7
ATOM      7  O   UNL     1       2.100   1.887   1.006  1.00  0.00    -0.457 OA
BRANCH   7   8
ATOM      8  C   UNL     1       3.365   1.462   0.572  1.00  0.00     0.128 A 
ATOM      9  C   UNL     1       4.968  -0.298   0.017  1.00  0.00     0.001 A 
ATOM     10  C   UNL     1       5.929   0.689  -0.264  1.00  0.00     0.010 A 
ATOM     11  C   UNL     1       3.687   0.098   0.442  1.00  0.00     0.057 A 
ATOM     12  C   UNL     1       5.617   2.043  -0.115  1.00  0.00     0.005 A 
ATOM     13  C   UNL     1       4.342   2.426   0.307  1.00  0.00     0.047 A 
BRANCH   9  14
ATOM     14  C   UNL     1       5.298  -1.733  -0.126  1.00  0.00     0.072 C 
ATOM     15  O   UNL     1       6.446  -2.093  -0.498  1.00  0.00    -0.545 OA
ATOM     16  O   UNL     1       4.343  -2.706   0.147  1.00  0.00    -0.545 OA
ENDBRANCH   9  14
ENDBRANCH   7   8
ENDBRANCH   1   7
BRANCH   6  17
ATOM     17  C   UNL     1      -2.968  -0.761   0.120  1.00  0.00    -0.011 C 
ATOM     18  C   UNL     1      -2.926  -1.815  -1.018  1.00  0.00     0.016 C 
ATOM     19  C   UNL     1      -3.390  -1.500   1.417  1.00  0.00     0.016 C 
BRANCH  17  20
ATOM     20  C   UNL     1      -3.987   0.364  -0.232  1.00  0.00     0.008 C 
ATOM     21  C   UNL     1      -5.424  -0.106  -0.485  1.00  0.00     0.005 C 
ENDBRANCH  17  20
ENDBRANCH   6  17
TORSDOF 5
