REMARK SMILES CC(C)(C)NC(=O)NC[C@@H]1CCC[C@@H]1NC(=O)NC(C)(C)C
REMARK SMILES IDX 10 1 11 2 12 3 13 4 14 5 9 6 8 7 5 8 6 9 7 11 2 13 1 14 3 15
REMARK SMILES IDX 4 16 15 17 16 18 18 19 17 21 19 23 20 24 21 25 22 26
REMARK H PARENT 5 10 8 12 15 20 18 22
ROOT
ATOM      1  C   UNL     1       0.186   1.223  -0.630  1.00  0.00     0.031 C 
ATOM      2  C   UNL     1      -0.016   2.061   0.628  1.00  0.00     0.007 C 
ATOM      3  C   UNL     1      -0.717   3.334   0.172  1.00  0.00     0.003 C 
ATOM      4  C   UNL     1      -1.411   3.023  -1.155  1.00  0.00     0.025 C 
ATOM      5  C   UNL     1      -0.943   1.629  -1.596  1.00  0.00     0.088 C 
ENDROOT
BRANCH   1   6
ATOM      6  C   UNL     1       0.295  -0.288  -0.340  1.00  0.00     0.123 C 
BRANCH   6   7
ATOM      7  N   UNL     1       1.480  -0.575   0.467  1.00  0.00    -0.338 N 
ATOM      8  N   UNL     1       3.932  -0.753   0.804  1.00  0.00    -0.334 N 
ATOM      9  C   UNL     1       2.808  -0.559  -0.073  1.00  0.00     0.315 C 
ATOM     10  H   UNL     1       3.711  -0.899   1.816  1.00  0.00     0.165 HD
ATOM     11  O   UNL     1       2.981  -0.379  -1.309  1.00  0.00    -0.249 OA
ATOM     12  H   UNL     1       1.346  -0.820   1.475  1.00  0.00     0.165 HD
BRANCH   8  13
ATOM     13  C   UNL     1       5.348  -0.743   0.387  1.00  0.00     0.033 C 
ATOM     14  C   UNL     1       5.615  -1.877  -0.622  1.00  0.00     0.034 C 
ATOM     15  C   UNL     1       5.714   0.622  -0.231  1.00  0.00     0.034 C 
ATOM     16  C   UNL     1       6.238  -0.973   1.627  1.00  0.00     0.034 C 
ENDBRANCH   8  13
ENDBRANCH   6   7
ENDBRANCH   1   6
BRANCH   5  17
ATOM     17  N   UNL     1      -2.054   0.662  -1.660  1.00  0.00    -0.335 N 
ATOM     18  C   UNL     1      -2.979   0.368  -0.598  1.00  0.00     0.315 C 
ATOM     19  N   UNL     1      -3.946  -0.682  -0.777  1.00  0.00    -0.334 N 
ATOM     20  H   UNL     1      -2.179   0.149  -2.562  1.00  0.00     0.165 HD
ATOM     21  O   UNL     1      -2.939   1.020   0.478  1.00  0.00    -0.249 OA
ATOM     22  H   UNL     1      -3.964  -1.144  -1.715  1.00  0.00     0.165 HD
BRANCH  19  23
ATOM     23  C   UNL     1      -4.866  -1.175   0.268  1.00  0.00     0.033 C 
ATOM     24  C   UNL     1      -5.698  -2.341  -0.306  1.00  0.00     0.034 C 
ATOM     25  C   UNL     1      -5.831  -0.054   0.701  1.00  0.00     0.034 C 
ATOM     26  C   UNL     1      -4.068  -1.694   1.480  1.00  0.00     0.034 C 
ENDBRANCH  19  23
ENDBRANCH   5  17
TORSDOF 5
