REMARK SMILES COc1ccccc1NC(=O)N1CCN(C(=O)Nc2ccccc2OC)CC1
REMARK SMILES IDX 9 1 10 2 11 3 12 4 13 5 14 6 15 7 16 8 17 9 18 10 27 11
REMARK SMILES IDX 28 12 8 15 3 16 4 17 5 18 7 19 6 20 2 21 1 22 19 23 20 24
REMARK SMILES IDX 24 25 21 26 23 27 22 28 25 29 26 30
REMARK H PARENT 9 13 18 14
ROOT
ATOM      1  N   UNL     1       3.543  -0.047  -0.116  1.00  0.00    -0.304 N 
ATOM      2  C   UNL     1       2.804   0.627  -1.148  1.00  0.00     0.322 C 
ATOM      3  O   UNL     1       3.422   1.216  -2.077  1.00  0.00    -0.248 OA
ATOM      4  N   UNL     1       1.363   0.599  -1.157  1.00  0.00    -0.321 N 
ATOM      5  C   UNL     1       0.613   0.292   0.068  1.00  0.00     0.143 C 
ATOM      6  C   UNL     1      -0.664   1.131   0.135  1.00  0.00     0.143 C 
ATOM      7  N   UNL     1      -1.386   1.058  -1.141  1.00  0.00    -0.321 N 
ATOM      8  C   UNL     1      -2.825   1.027  -1.162  1.00  0.00     0.322 C 
ATOM      9  O   UNL     1      -3.453   1.637  -2.071  1.00  0.00    -0.248 OA
ATOM     10  N   UNL     1      -3.548   0.255  -0.189  1.00  0.00    -0.304 N 
ATOM     11  C   UNL     1      -0.638   1.397  -2.357  1.00  0.00     0.143 C 
ATOM     12  C   UNL     1       0.640   0.560  -2.437  1.00  0.00     0.143 C 
ATOM     13  H   UNL     1       3.077  -0.839   0.381  1.00  0.00     0.172 HD
ATOM     14  H   UNL     1      -3.046  -0.539   0.268  1.00  0.00     0.172 HD
ENDROOT
BRANCH   1  15
ATOM     15  C   UNL     1       4.927   0.221   0.176  1.00  0.00     0.085 A 
ATOM     16  C   UNL     1       5.766  -0.823   0.618  1.00  0.00     0.142 A 
ATOM     17  C   UNL     1       7.113  -0.545   0.927  1.00  0.00     0.048 A 
ATOM     18  C   UNL     1       7.612   0.754   0.805  1.00  0.00     0.004 A 
ATOM     19  C   UNL     1       5.441   1.527   0.076  1.00  0.00     0.030 A 
ATOM     20  C   UNL     1       6.778   1.788   0.384  1.00  0.00     0.002 A 
BRANCH  16  21
ATOM     21  O   UNL     1       5.234  -2.118   0.728  1.00  0.00    -0.495 OA
ATOM     22  C   UNL     1       5.969  -3.260   1.159  1.00  0.00     0.278 C 
ENDBRANCH  16  21
ENDBRANCH   1  15
BRANCH  10  23
ATOM     23  C   UNL     1      -4.949   0.432   0.087  1.00  0.00     0.085 A 
ATOM     24  C   UNL     1      -5.532   1.712   0.048  1.00  0.00     0.030 A 
ATOM     25  C   UNL     1      -5.738  -0.679   0.453  1.00  0.00     0.142 A 
ATOM     26  C   UNL     1      -6.886   1.883   0.342  1.00  0.00     0.002 A 
ATOM     27  C   UNL     1      -7.103  -0.491   0.748  1.00  0.00     0.048 A 
ATOM     28  C   UNL     1      -7.670   0.784   0.688  1.00  0.00     0.004 A 
BRANCH  25  29
ATOM     29  O   UNL     1      -5.138  -1.948   0.502  1.00  0.00    -0.495 OA
ATOM     30  C   UNL     1      -5.816  -3.149   0.853  1.00  0.00     0.278 C 
ENDBRANCH  25  29
ENDBRANCH  10  23
TORSDOF 4
