REMARK SMILES N=c1[nH]cnc2c1cnn2C1CCCCC1
REMARK SMILES IDX 3 1 4 2 5 3 6 4 7 5 8 6 9 7 10 8 2 9 1 11 11 13 12 14 16 15
REMARK SMILES IDX 13 16 15 17 14 18
REMARK H PARENT 3 10 1 12
ROOT
ATOM      1  N   UNL     1       1.891  -2.205   3.155  1.00  0.00    -0.331 N 
ATOM      2  C   UNL     1       2.122  -1.231   2.213  1.00  0.00     0.200 A 
ATOM      3  N   UNL     1       1.079  -0.586   1.608  1.00  0.00    -0.219 NA
ATOM      4  C   UNL     1      -0.181  -0.932   1.969  1.00  0.00     0.163 A 
ATOM      5  C   UNL     1      -0.434  -1.891   2.891  1.00  0.00     0.081 A 
ATOM      6  C   UNL     1      -1.809  -1.980   2.961  1.00  0.00     0.149 A 
ATOM      7  N   UNL     1      -2.335  -1.085   2.087  1.00  0.00    -0.178 NA
ATOM      8  N   UNL     1      -1.335  -0.436   1.493  1.00  0.00    -0.244 N 
ATOM      9  C   UNL     1       0.615  -2.557   3.511  1.00  0.00     0.136 A 
ATOM     10  H   UNL     1       2.711  -2.679   3.597  1.00  0.00     0.169 HD
ENDROOT
BRANCH   9  11
ATOM     11  N   UNL     1       0.391  -3.480   4.391  1.00  0.00    -0.284 NA
ATOM     12  H   UNL     1       1.169  -3.991   4.865  1.00  0.00     0.189 HD
ENDBRANCH   9  11
BRANCH   8  13
ATOM     13  C   UNL     1      -1.490   0.554   0.419  1.00  0.00     0.110 C 
ATOM     14  C   UNL     1      -1.625  -0.156  -0.941  1.00  0.00     0.027 C 
ATOM     15  C   UNL     1      -2.669   1.527   0.705  1.00  0.00     0.027 C 
ATOM     16  C   UNL     1      -2.968  -0.894  -1.091  1.00  0.00     0.002 C 
ATOM     17  C   UNL     1      -3.867   1.347  -0.244  1.00  0.00     0.002 C 
ATOM     18  C   UNL     1      -4.169  -0.135  -0.488  1.00  0.00     0.000 C 
ENDBRANCH   8  13
TORSDOF 2
