REMARK SMILES Cc1c(CC[NH3+])ccc2c1[nH]c1ccccc12
REMARK SMILES IDX 5 1 6 2 4 6 3 7 2 8 7 9 10 10 8 11 9 12 11 13 17 14 12 15
REMARK SMILES IDX 16 16 13 17 15 18 14 19 1 20
REMARK H PARENT 6 3 6 4 6 5 11 21
ROOT
ATOM      1  C   UNL     1      -3.704  -0.444   0.192  1.00  0.00     0.263 C 
ENDROOT
BRANCH   1   2
ATOM      2  N   UNL     1      -5.128  -0.271  -0.089  1.00  0.00    -0.357 N 
ATOM      3  H   UNL     1      -5.317   0.714  -0.387  1.00  0.00     0.344 HD
ATOM      4  H   UNL     1      -5.675  -0.472   0.779  1.00  0.00     0.344 HD
ATOM      5  H   UNL     1      -5.429  -0.933  -0.841  1.00  0.00     0.344 HD
ENDBRANCH   1   2
BRANCH   1   6
ATOM      6  C   UNL     1      -2.860  -0.169  -1.060  1.00  0.00     0.097 C 
BRANCH   6   7
ATOM      7  C   UNL     1      -1.386  -0.312  -0.755  1.00  0.00    -0.037 A 
ATOM      8  C   UNL     1      -0.585   0.791  -0.326  1.00  0.00    -0.024 A 
ATOM      9  C   UNL     1      -0.805  -1.602  -0.872  1.00  0.00     0.005 A 
ATOM     10  C   UNL     1       0.784   0.550  -0.110  1.00  0.00     0.050 A 
ATOM     11  C   UNL     1       0.557  -1.812  -0.618  1.00  0.00     0.011 A 
ATOM     12  C   UNL     1       1.322  -0.715  -0.247  1.00  0.00     0.008 A 
ATOM     13  N   UNL     1       1.742   1.446   0.236  1.00  0.00    -0.354 N 
ATOM     14  C   UNL     1       2.665  -0.602   0.031  1.00  0.00     0.007 A 
ATOM     15  C   UNL     1       2.882   0.728   0.319  1.00  0.00     0.046 A 
ATOM     16  C   UNL     1       3.696  -1.540   0.044  1.00  0.00     0.011 A 
ATOM     17  C   UNL     1       4.154   1.201   0.641  1.00  0.00     0.027 A 
ATOM     18  C   UNL     1       4.987  -1.086   0.368  1.00  0.00     0.001 A 
ATOM     19  C   UNL     1       5.215   0.277   0.665  1.00  0.00     0.002 A 
ATOM     20  C   UNL     1      -1.150   2.183  -0.175  1.00  0.00     0.047 C 
ATOM     21  H   UNL     1       1.644   2.473   0.393  1.00  0.00     0.167 HD
ENDBRANCH   6   7
ENDBRANCH   1   6
TORSDOF 3
