REMARK SMILES O=[N+]([O-])c1ccc(Sc2ncccn2)c([N+](=O)[O-])c1
REMARK SMILES IDX 4 1 5 2 6 3 7 4 15 5 19 6 2 7 1 8 3 9 16 10 17 11 18 12 8 13
REMARK SMILES IDX 9 14 10 15 14 16 11 17 13 18 12 19
REMARK H PARENT
ROOT
ATOM      1  C   UNL     1       2.650   0.899   0.089  1.00  0.00     0.276 A 
ATOM      2  C   UNL     1       1.984   1.322  -1.073  1.00  0.00     0.087 A 
ATOM      3  C   UNL     1       0.969   0.543  -1.629  1.00  0.00     0.030 A 
ATOM      4  C   UNL     1       0.601  -0.673  -1.043  1.00  0.00     0.094 A 
ATOM      5  C   UNL     1       1.273  -1.127   0.115  1.00  0.00     0.290 A 
ATOM      6  C   UNL     1       2.285  -0.325   0.675  1.00  0.00     0.172 A 
ENDROOT
BRANCH   1   7
ATOM      7  N   UNL     1       3.693   1.703   0.670  1.00  0.00     0.062 N 
ATOM      8  O   UNL     1       4.024   2.790   0.151  1.00  0.00    -0.258 OA
ATOM      9  O   UNL     1       4.344   1.289   1.810  1.00  0.00    -0.258 OA
ENDBRANCH   1   7
BRANCH   5  10
ATOM     10  N   UNL     1       0.940  -2.380   0.738  1.00  0.00     0.064 N 
ATOM     11  O   UNL     1       1.088  -2.528   1.969  1.00  0.00    -0.258 OA
ATOM     12  O   UNL     1       0.616  -3.478  -0.024  1.00  0.00    -0.258 OA
ENDBRANCH   5  10
BRANCH   4  13
ATOM     13  S   UNL     1      -0.775  -1.576  -1.769  1.00  0.00    -0.043 SA
BRANCH  13  14
ATOM     14  C   UNL     1      -1.974  -0.759  -0.725  1.00  0.00     0.192 A 
ATOM     15  N   UNL     1      -2.554   0.400  -1.135  1.00  0.00    -0.231 NA
ATOM     16  N   UNL     1      -2.301  -1.294   0.481  1.00  0.00    -0.231 NA
ATOM     17  C   UNL     1      -3.461   1.040  -0.352  1.00  0.00     0.116 A 
ATOM     18  C   UNL     1      -3.203  -0.684   1.292  1.00  0.00     0.116 A 
ATOM     19  C   UNL     1      -3.807   0.507   0.890  1.00  0.00     0.040 A 
ENDBRANCH  13  14
ENDBRANCH   4  13
TORSDOF 4
