REMARK SMILES C=CCc1ccccc1OCC(=O)[O-]
REMARK SMILES IDX 9 1 8 2 4 3 7 4 5 5 6 6 10 7 11 8 12 9 13 10 14 11 3 12 2 13
REMARK SMILES IDX 1 14
REMARK H PARENT
ROOT
ATOM      1  C   UNL     1       0.463  -0.153  -0.001  1.00  0.00     0.123 A 
ATOM      2  C   UNL     1       1.268  -1.107   0.655  1.00  0.00     0.047 A 
ATOM      3  C   UNL     1      -0.686  -0.585  -0.699  1.00  0.00    -0.002 A 
ATOM      4  C   UNL     1       0.932  -2.462   0.619  1.00  0.00     0.004 A 
ATOM      5  C   UNL     1      -1.016  -1.952  -0.717  1.00  0.00     0.008 A 
ATOM      6  C   UNL     1      -0.208  -2.884  -0.064  1.00  0.00     0.001 A 
ENDROOT
BRANCH   1   7
ATOM      7  O   UNL     1       0.769   1.220   0.022  1.00  0.00    -0.487 OA
BRANCH   7   8
ATOM      8  C   UNL     1       1.915   1.806   0.640  1.00  0.00     0.282 C 
BRANCH   8   9
ATOM      9  C   UNL     1       3.154   1.490  -0.136  1.00  0.00     0.079 C 
ATOM     10  O   UNL     1       3.198   1.712  -1.375  1.00  0.00    -0.546 OA
ATOM     11  O   UNL     1       4.270   0.977   0.512  1.00  0.00    -0.546 OA
ENDBRANCH   8   9
ENDBRANCH   7   8
ENDBRANCH   1   7
BRANCH   3  12
ATOM     12  C   UNL     1      -1.598   0.398  -1.393  1.00  0.00     0.066 C 
BRANCH  12  13
ATOM     13  C   UNL     1      -2.792   0.714  -0.537  1.00  0.00    -0.030 C 
ATOM     14  C   UNL     1      -2.696   1.481   0.553  1.00  0.00     0.004 C 
ENDBRANCH  12  13
ENDBRANCH   3  12
TORSDOF 5
