REMARK SMILES CC[C@@H](C)Nc1nc2c(c(=O)n(C)c(=O)n2C)n1C
REMARK SMILES IDX 3 1 4 2 2 3 1 4 5 5 6 7 7 8 18 9 8 10 9 11 16 12 10 13 14 14
REMARK SMILES IDX 12 15 19 16 17 17 11 18 15 19 13 20
REMARK H PARENT 5 6
ROOT
ATOM      1  C   UNL     1       2.802   0.605   0.648  1.00  0.00     0.078 C 
ATOM      2  C   UNL     1       2.677   1.956   1.358  1.00  0.00     0.031 C 
ENDROOT
BRANCH   1   3
ATOM      3  C   UNL     1       4.268   0.343   0.254  1.00  0.00     0.021 C 
ATOM      4  C   UNL     1       4.467  -1.056  -0.328  1.00  0.00     0.006 C 
ENDBRANCH   1   3
BRANCH   1   5
ATOM      5  N   UNL     1       1.943   0.596  -0.540  1.00  0.00    -0.353 N 
ATOM      6  H   UNL     1       2.246   1.190  -1.345  1.00  0.00     0.163 HD
BRANCH   5   7
ATOM      7  C   UNL     1       0.536   0.343  -0.438  1.00  0.00     0.205 A 
ATOM      8  N   UNL     1      -0.388   1.257  -0.830  1.00  0.00    -0.194 NA
ATOM      9  N   UNL     1      -0.004  -0.807   0.050  1.00  0.00    -0.308 N 
ATOM     10  C   UNL     1      -1.551   0.643  -0.536  1.00  0.00     0.170 A 
ATOM     11  C   UNL     1      -1.330  -0.583  -0.006  1.00  0.00     0.153 A 
ATOM     12  N   UNL     1      -2.803   1.136  -0.738  1.00  0.00    -0.279 N 
ATOM     13  C   UNL     1      -2.402  -1.390   0.362  1.00  0.00     0.282 A 
ATOM     14  C   UNL     1      -3.874   0.335  -0.406  1.00  0.00     0.332 A 
ATOM     15  N   UNL     1      -3.677  -0.908   0.173  1.00  0.00    -0.261 N 
ATOM     16  C   UNL     1       0.686  -2.026   0.472  1.00  0.00     0.154 C 
ATOM     17  C   UNL     1      -3.001   2.449  -1.367  1.00  0.00     0.157 C 
ATOM     18  O   UNL     1      -2.204  -2.533   0.858  1.00  0.00    -0.267 OA
ATOM     19  O   UNL     1      -5.049   0.740  -0.639  1.00  0.00    -0.247 OA
ATOM     20  C   UNL     1      -4.837  -1.750   0.512  1.00  0.00     0.159 C 
ENDBRANCH   5   7
ENDBRANCH   1   5
TORSDOF 3
