REMARK SMILES CC(=O)Nc1ccc(Cc2nc3c(O)n(C)c(=O)n(C)c-3n2)cc1
REMARK SMILES IDX 9 1 10 2 13 3 12 4 15 5 11 6 21 7 17 8 22 9 19 10 16 11
REMARK SMILES IDX 18 12 20 13 14 14 8 16 7 17 23 18 6 19 24 20 5 21 4 22 2 23
REMARK SMILES IDX 1 25 3 26
REMARK H PARENT 14 15 4 24
ROOT
ATOM      1  C   UNL     1       0.301   1.900   1.840  1.00  0.00     0.113 C 
ENDROOT
BRANCH   1   2
ATOM      2  C   UNL     1      -0.944   1.473   1.131  1.00  0.00     0.136 A 
ATOM      3  C   UNL     1      -3.322   1.482  -1.402  1.00  0.00     0.225 A 
ATOM      4  C   UNL     1      -2.456   1.355  -0.338  1.00  0.00     0.168 A 
ATOM      5  N   UNL     1      -4.378   0.596  -1.488  1.00  0.00    -0.266 N 
ATOM      6  N   UNL     1      -1.367   2.068  -0.021  1.00  0.00    -0.224 NA
ATOM      7  C   UNL     1      -2.655   0.348   0.616  1.00  0.00     0.170 A 
ATOM      8  C   UNL     1      -4.560  -0.392  -0.523  1.00  0.00     0.332 A 
ATOM      9  N   UNL     1      -1.694   0.414   1.549  1.00  0.00    -0.213 NA
ATOM     10  N   UNL     1      -3.678  -0.536   0.529  1.00  0.00    -0.279 N 
ATOM     11  C   UNL     1      -5.319   0.715  -2.615  1.00  0.00     0.158 C 
ATOM     12  O   UNL     1      -5.550  -1.174  -0.603  1.00  0.00    -0.247 OA
ATOM     13  C   UNL     1      -3.876  -1.560   1.562  1.00  0.00     0.157 C 
BRANCH   3  14
ATOM     14  O   UNL     1      -3.102   2.496  -2.339  1.00  0.00    -0.493 OA
ATOM     15  H   UNL     1      -3.697   2.654  -3.141  1.00  0.00     0.295 HD
ENDBRANCH   3  14
ENDBRANCH   1   2
BRANCH   1  16
ATOM     16  C   UNL     1       1.459   1.046   1.401  1.00  0.00    -0.040 A 
ATOM     17  C   UNL     1       1.763  -0.140   2.085  1.00  0.00     0.006 A 
ATOM     18  C   UNL     1       2.199   1.391   0.260  1.00  0.00     0.006 A 
ATOM     19  C   UNL     1       2.814  -0.954   1.652  1.00  0.00     0.026 A 
ATOM     20  C   UNL     1       3.250   0.577  -0.173  1.00  0.00     0.026 A 
ATOM     21  C   UNL     1       3.579  -0.594   0.533  1.00  0.00     0.041 A 
BRANCH  21  22
ATOM     22  N   UNL     1       4.638  -1.463   0.095  1.00  0.00    -0.326 N 
ATOM     23  C   UNL     1       5.845  -1.010  -0.537  1.00  0.00     0.221 C 
ATOM     24  H   UNL     1       4.565  -2.481   0.324  1.00  0.00     0.169 HD
ATOM     25  C   UNL     1       6.795  -2.003  -1.122  1.00  0.00     0.114 C 
ATOM     26  O   UNL     1       6.155   0.212  -0.532  1.00  0.00    -0.275 OA
ENDBRANCH  21  22
ENDBRANCH   1  16
TORSDOF 4
