REMARK SMILES CC(C)(C)NC(=O)NC[C@H]1CCC[C@@H]1NC(=O)NC(C)(C)C
REMARK SMILES IDX 10 1 11 2 12 3 13 4 14 5 9 6 8 7 5 8 6 9 7 11 2 13 1 14 3 15
REMARK SMILES IDX 4 16 15 17 16 18 18 19 17 21 19 23 20 24 21 25 22 26
REMARK H PARENT 5 10 8 12 15 20 18 22
ROOT
ATOM      1  C   UNL     1       0.250   0.259  -0.535  1.00  0.00     0.031 C 
ATOM      2  C   UNL     1       1.063   0.127  -1.818  1.00  0.00     0.007 C 
ATOM      3  C   UNL     1       0.064   0.304  -2.956  1.00  0.00     0.003 C 
ATOM      4  C   UNL     1      -1.327   0.070  -2.366  1.00  0.00     0.025 C 
ATOM      5  C   UNL     1      -1.121  -0.314  -0.900  1.00  0.00     0.088 C 
ENDROOT
BRANCH   1   6
ATOM      6  C   UNL     1       0.888  -0.466   0.663  1.00  0.00     0.123 C 
BRANCH   6   7
ATOM      7  N   UNL     1       2.136   0.190   1.051  1.00  0.00    -0.338 N 
ATOM      8  N   UNL     1       4.588   0.540   0.892  1.00  0.00    -0.334 N 
ATOM      9  C   UNL     1       3.424  -0.255   0.603  1.00  0.00     0.315 C 
ATOM     10  H   UNL     1       4.431   1.401   1.464  1.00  0.00     0.165 HD
ATOM     11  O   UNL     1       3.528  -1.334  -0.040  1.00  0.00    -0.249 OA
ATOM     12  H   UNL     1       2.070   1.094   1.571  1.00  0.00     0.165 HD
BRANCH   8  13
ATOM     13  C   UNL     1       5.956   0.245   0.421  1.00  0.00     0.033 C 
ATOM     14  C   UNL     1       6.906   1.356   0.914  1.00  0.00     0.034 C 
ATOM     15  C   UNL     1       5.995   0.216  -1.119  1.00  0.00     0.034 C 
ATOM     16  C   UNL     1       6.440  -1.101   0.996  1.00  0.00     0.034 C 
ENDBRANCH   8  13
ENDBRANCH   6   7
ENDBRANCH   1   6
BRANCH   5  17
ATOM     17  N   UNL     1      -2.187   0.226  -0.049  1.00  0.00    -0.335 N 
ATOM     18  C   UNL     1      -3.528  -0.281  -0.097  1.00  0.00     0.315 C 
ATOM     19  N   UNL     1      -4.535   0.295   0.753  1.00  0.00    -0.334 N 
ATOM     20  H   UNL     1      -1.966   0.972   0.649  1.00  0.00     0.165 HD
ATOM     21  O   UNL     1      -3.812  -1.228  -0.879  1.00  0.00    -0.249 OA
ATOM     22  H   UNL     1      -4.229   1.082   1.370  1.00  0.00     0.165 HD
BRANCH  19  23
ATOM     23  C   UNL     1      -5.946  -0.136   0.813  1.00  0.00     0.033 C 
ATOM     24  C   UNL     1      -6.693   0.733   1.846  1.00  0.00     0.034 C 
ATOM     25  C   UNL     1      -6.035  -1.609   1.258  1.00  0.00     0.034 C 
ATOM     26  C   UNL     1      -6.620   0.050  -0.560  1.00  0.00     0.034 C 
ENDBRANCH  19  23
ENDBRANCH   5  17
TORSDOF 5
