REMARK SMILES N=c1[nH]c(Nc2ccc(Br)cc2)ncc1N
REMARK SMILES IDX 3 1 4 2 13 3 14 4 15 5 2 6 5 8 6 10 7 11 12 12 8 13 11 14
REMARK SMILES IDX 9 15 10 16 1 17 16 19
REMARK H PARENT 3 7 5 9 1 18 16 20 16 21
ROOT
ATOM      1  N   UNL     1      -1.627   1.242  -1.155  1.00  0.00    -0.309 N 
ATOM      2  C   UNL     1      -0.639   0.428  -0.690  1.00  0.00     0.206 A 
ATOM      3  N   UNL     1      -0.935  -0.532   0.227  1.00  0.00    -0.221 NA
ATOM      4  C   UNL     1      -2.193  -0.684   0.708  1.00  0.00     0.144 A 
ATOM      5  C   UNL     1      -3.221   0.147   0.258  1.00  0.00     0.093 A 
ATOM      6  C   UNL     1      -2.909   1.128  -0.700  1.00  0.00     0.150 A 
ATOM      7  H   UNL     1      -1.392   1.969  -1.869  1.00  0.00     0.171 HD
ENDROOT
BRANCH   2   8
ATOM      8  N   UNL     1       0.695   0.553  -1.210  1.00  0.00    -0.326 N 
ATOM      9  H   UNL     1       0.818   1.055  -2.118  1.00  0.00     0.170 HD
BRANCH   8  10
ATOM     10  C   UNL     1       1.852  -0.062  -0.618  1.00  0.00     0.041 A 
ATOM     11  C   UNL     1       2.894  -0.508  -1.446  1.00  0.00     0.027 A 
ATOM     12  C   UNL     1       1.992  -0.170   0.778  1.00  0.00     0.027 A 
ATOM     13  C   UNL     1       4.040  -1.087  -0.892  1.00  0.00     0.018 A 
ATOM     14  C   UNL     1       3.139  -0.749   1.329  1.00  0.00     0.018 A 
ATOM     15  C   UNL     1       4.161  -1.213   0.495  1.00  0.00     0.018 A 
ATOM     16  Br  UNL     1       5.728  -2.002   1.250  1.00  0.00    -0.051 Br
ENDBRANCH   8  10
ENDBRANCH   2   8
BRANCH   6  17
ATOM     17  N   UNL     1      -3.834   1.918  -1.149  1.00  0.00    -0.283 NA
ATOM     18  H   UNL     1      -3.638   2.657  -1.861  1.00  0.00     0.189 HD
ENDBRANCH   6  17
BRANCH   5  19
ATOM     19  N   UNL     1      -4.551  -0.014   0.767  1.00  0.00    -0.394 N 
ATOM     20  H   UNL     1      -4.762  -0.750   1.478  1.00  0.00     0.156 HD
ATOM     21  H   UNL     1      -5.336   0.594   0.446  1.00  0.00     0.156 HD
ENDBRANCH   5  19
TORSDOF 4
