REMARK SMILES CN1CN(C)C(c2ccncc2)=C1c1ccncc1
REMARK SMILES IDX 1 1 2 2 3 3 4 4 5 5 6 6 13 7 14 8 15 9 19 10 16 11 18 12
REMARK SMILES IDX 17 13 7 14 8 15 12 16 9 17 11 18 10 19
REMARK H PARENT
ROOT
ATOM      1  C   UNL     1       2.193  -2.657  -0.460  1.00  0.00     0.145 C 
ATOM      2  N   UNL     1       0.867  -2.075  -0.275  1.00  0.00    -0.355 N 
ATOM      3  C   UNL     1      -0.324  -2.829   0.096  1.00  0.00     0.236 C 
ATOM      4  N   UNL     1      -1.312  -1.802   0.407  1.00  0.00    -0.355 N 
ATOM      5  C   UNL     1      -2.733  -2.055   0.620  1.00  0.00     0.145 C 
ATOM      6  C   UNL     1      -0.700  -0.526   0.217  1.00  0.00     0.070 C 
ATOM      7  C   UNL     1       0.561  -0.684  -0.176  1.00  0.00     0.070 C 
ENDROOT
BRANCH   7   8
ATOM      8  C   UNL     1       1.537   0.400  -0.424  1.00  0.00     0.003 A 
ATOM      9  C   UNL     1       1.755   1.399   0.536  1.00  0.00     0.030 A 
ATOM     10  C   UNL     1       2.255   0.443  -1.628  1.00  0.00     0.030 A 
ATOM     11  C   UNL     1       2.678   2.414   0.276  1.00  0.00     0.111 A 
ATOM     12  C   UNL     1       3.169   1.476  -1.847  1.00  0.00     0.111 A 
ATOM     13  N   UNL     1       3.360   2.431  -0.899  1.00  0.00    -0.265 NA
ENDBRANCH   7   8
BRANCH   6  14
ATOM     14  C   UNL     1      -1.404   0.765   0.385  1.00  0.00     0.003 A 
ATOM     15  C   UNL     1      -2.083   1.049   1.577  1.00  0.00     0.030 A 
ATOM     16  C   UNL     1      -1.397   1.720  -0.642  1.00  0.00     0.030 A 
ATOM     17  C   UNL     1      -2.739   2.274   1.720  1.00  0.00     0.111 A 
ATOM     18  C   UNL     1      -2.066   2.933  -0.458  1.00  0.00     0.111 A 
ATOM     19  N   UNL     1      -2.717   3.182   0.709  1.00  0.00    -0.265 NA
ENDBRANCH   6  14
TORSDOF 2
