REMARK SMILES O=C([O-])c1ccccc1C(=O)Nc1cccc([N+](=O)[O-])c1
REMARK SMILES IDX 10 1 11 2 12 3 9 5 4 6 5 7 6 8 8 9 7 10 2 11 1 12 3 13 13 14
REMARK SMILES IDX 14 15 21 16 15 17 17 18 16 19 18 20 19 21 20 22
REMARK H PARENT 12 4
ROOT
ATOM      1  C   UNL     1       0.618  -0.563   0.644  1.00  0.00     0.256 C 
ATOM      2  O   UNL     1       0.044  -0.884   1.721  1.00  0.00    -0.269 OA
ATOM      3  N   UNL     1      -0.135  -0.477  -0.577  1.00  0.00    -0.322 N 
ATOM      4  H   UNL     1       0.385  -0.586  -1.477  1.00  0.00     0.170 HD
ENDROOT
BRANCH   1   5
ATOM      5  C   UNL     1       2.086  -0.379   0.631  1.00  0.00     0.049 A 
ATOM      6  C   UNL     1       2.721   0.661  -0.100  1.00  0.00     0.010 A 
ATOM      7  C   UNL     1       4.127   0.692  -0.163  1.00  0.00     0.011 A 
ATOM      8  C   UNL     1       4.893  -0.258   0.515  1.00  0.00     0.001 A 
ATOM      9  C   UNL     1       2.876  -1.313   1.326  1.00  0.00     0.014 A 
ATOM     10  C   UNL     1       4.269  -1.251   1.267  1.00  0.00     0.001 A 
BRANCH   6  11
ATOM     11  C   UNL     1       1.963   1.760  -0.745  1.00  0.00     0.072 C 
ATOM     12  O   UNL     1       2.431   2.344  -1.759  1.00  0.00    -0.545 OA
ATOM     13  O   UNL     1       0.757   2.200  -0.213  1.00  0.00    -0.545 OA
ENDBRANCH   6  11
ENDBRANCH   1   5
BRANCH   3  14
ATOM     14  C   UNL     1      -1.568  -0.363  -0.632  1.00  0.00     0.048 A 
ATOM     15  C   UNL     1      -2.257  -0.908  -1.723  1.00  0.00     0.026 A 
ATOM     16  C   UNL     1      -2.286   0.338   0.354  1.00  0.00     0.111 A 
ATOM     17  C   UNL     1      -3.646  -0.791  -1.812  1.00  0.00     0.009 A 
ATOM     18  C   UNL     1      -3.687   0.461   0.273  1.00  0.00     0.271 A 
ATOM     19  C   UNL     1      -4.358  -0.115  -0.819  1.00  0.00     0.086 A 
BRANCH  18  20
ATOM     20  N   UNL     1      -4.422   1.173   1.285  1.00  0.00     0.062 N 
ATOM     21  O   UNL     1      -3.833   1.684   2.260  1.00  0.00    -0.258 OA
ATOM     22  O   UNL     1      -5.790   1.301   1.196  1.00  0.00    -0.258 OA
ENDBRANCH  18  20
ENDBRANCH   3  14
TORSDOF 4
