REMARK SMILES Cc1cccc(NC(=S)Nc2cccc(C)n2)n1
REMARK SMILES IDX 8 1 9 2 7 3 6 5 2 6 3 7 18 8 4 9 5 10 1 11 10 12 11 14 12 15
REMARK SMILES IDX 17 16 13 17 15 18 14 19 16 20
REMARK H PARENT 7 4 10 13
ROOT
ATOM      1  C   UNL     1      -0.026   0.489  -0.237  1.00  0.00     0.177 C 
ATOM      2  S   UNL     1       0.008   0.010  -1.811  1.00  0.00    -0.040 S 
ENDROOT
BRANCH   1   3
ATOM      3  N   UNL     1       1.183   0.942   0.393  1.00  0.00    -0.317 N 
ATOM      4  H   UNL     1       1.118   1.750   1.052  1.00  0.00     0.170 HD
BRANCH   3   5
ATOM      5  C   UNL     1       2.480   0.364   0.178  1.00  0.00     0.132 A 
ATOM      6  C   UNL     1       4.848   0.651   0.192  1.00  0.00     0.040 A 
ATOM      7  C   UNL     1       5.033  -0.696  -0.144  1.00  0.00     0.023 A 
ATOM      8  N   UNL     1       3.587   1.139   0.352  1.00  0.00    -0.236 NA
ATOM      9  C   UNL     1       3.919  -1.519  -0.308  1.00  0.00     0.006 A 
ATOM     10  C   UNL     1       2.636  -0.995  -0.142  1.00  0.00     0.047 A 
ATOM     11  C   UNL     1       6.026   1.548   0.400  1.00  0.00     0.067 C 
ENDBRANCH   3   5
ENDBRANCH   1   3
BRANCH   1  12
ATOM     12  N   UNL     1      -1.284   0.805   0.382  1.00  0.00    -0.317 N 
ATOM     13  H   UNL     1      -1.315   1.615   1.041  1.00  0.00     0.170 HD
BRANCH  12  14
ATOM     14  C   UNL     1      -2.506   0.086   0.155  1.00  0.00     0.132 A 
ATOM     15  C   UNL     1      -2.506  -1.282  -0.165  1.00  0.00     0.047 A 
ATOM     16  N   UNL     1      -3.694   0.732   0.320  1.00  0.00    -0.236 NA
ATOM     17  C   UNL     1      -3.722  -1.945  -0.343  1.00  0.00     0.006 A 
ATOM     18  C   UNL     1      -4.891   0.107   0.148  1.00  0.00     0.040 A 
ATOM     19  C   UNL     1      -4.922  -1.252  -0.189  1.00  0.00     0.023 A 
ATOM     20  C   UNL     1      -6.163   0.867   0.345  1.00  0.00     0.067 C 
ENDBRANCH  12  14
ENDBRANCH   1  12
TORSDOF 4
