REMARK SMILES O=c1[nH]c(=S)c2ncn(-c3ccccc3)c2[nH]1
REMARK SMILES IDX 3 1 2 2 1 3 17 4 16 5 6 6 7 7 8 8 9 9 4 10 5 11 10 14 11 15
REMARK SMILES IDX 15 16 12 17 14 18 13 19
REMARK H PARENT 3 12 17 13
ROOT
ATOM      1  N   UNL     1       3.858   0.332   0.257  1.00  0.00    -0.296 N 
ATOM      2  C   UNL     1       2.884   1.198   0.693  1.00  0.00     0.325 A 
ATOM      3  O   UNL     1       3.211   2.273   1.264  1.00  0.00    -0.248 OA
ATOM      4  N   UNL     1       1.560   0.903   0.506  1.00  0.00    -0.291 N 
ATOM      5  C   UNL     1       1.243  -0.269  -0.102  1.00  0.00     0.149 A 
ATOM      6  C   UNL     1       2.188  -1.122  -0.564  1.00  0.00     0.141 A 
ATOM      7  N   UNL     1       1.616  -2.163  -1.199  1.00  0.00    -0.231 NA
ATOM      8  C   UNL     1       0.287  -1.888  -1.094  1.00  0.00     0.207 A 
ATOM      9  N   UNL     1       0.025  -0.736  -0.424  1.00  0.00    -0.285 N 
ATOM     10  C   UNL     1       3.535  -0.833  -0.384  1.00  0.00     0.137 A 
ATOM     11  S   UNL     1       4.704  -1.844  -0.930  1.00  0.00    -0.058 S 
ATOM     12  H   UNL     1       4.863   0.579   0.409  1.00  0.00     0.172 HD
ATOM     13  H   UNL     1       0.822   1.578   0.806  1.00  0.00     0.173 HD
ENDROOT
BRANCH   9  14
ATOM     14  C   UNL     1      -1.268  -0.183  -0.131  1.00  0.00     0.049 A 
ATOM     15  C   UNL     1      -1.563   0.311   1.151  1.00  0.00     0.027 A 
ATOM     16  C   UNL     1      -2.270  -0.173  -1.117  1.00  0.00     0.027 A 
ATOM     17  C   UNL     1      -2.830   0.831   1.432  1.00  0.00     0.002 A 
ATOM     18  C   UNL     1      -3.536   0.348  -0.832  1.00  0.00     0.002 A 
ATOM     19  C   UNL     1      -3.815   0.852   0.441  1.00  0.00     0.000 A 
ENDBRANCH   9  14
TORSDOF 1
