REMARK SMILES COc1ccc(CC(=O)c2ccc(O)cc2O)cc1
REMARK SMILES IDX 7 1 6 2 3 3 4 4 19 5 5 6 18 7 2 8 1 9 8 10 9 11 10 12 11 13
REMARK SMILES IDX 16 14 12 15 15 16 13 17 17 18 14 20
REMARK H PARENT 17 19 14 21
ROOT
ATOM      1  C   UNL     1       0.298  -1.258  -0.514  1.00  0.00     0.116 C 
ENDROOT
BRANCH   1   2
ATOM      2  C   UNL     1      -1.152  -0.863  -0.616  1.00  0.00    -0.040 A 
ATOM      3  C   UNL     1      -3.844  -0.056  -0.818  1.00  0.00     0.118 A 
ATOM      4  C   UNL     1      -3.167   0.024   0.414  1.00  0.00     0.047 A 
ATOM      5  C   UNL     1      -3.160  -0.534  -1.942  1.00  0.00     0.047 A 
ATOM      6  C   UNL     1      -1.830  -0.373   0.511  1.00  0.00     0.008 A 
ATOM      7  C   UNL     1      -1.823  -0.931  -1.846  1.00  0.00     0.008 A 
BRANCH   3   8
ATOM      8  O   UNL     1      -5.184   0.329  -0.967  1.00  0.00    -0.497 OA
ATOM      9  C   UNL     1      -5.997   0.833   0.088  1.00  0.00     0.278 C 
ENDBRANCH   3   8
ENDBRANCH   1   2
BRANCH   1  10
ATOM     10  C   UNL     1       1.200  -0.054  -0.600  1.00  0.00     0.170 C 
ATOM     11  O   UNL     1       0.920   0.865  -1.417  1.00  0.00    -0.294 OA
BRANCH  10  12
ATOM     12  C   UNL     1       2.443   0.043   0.209  1.00  0.00     0.060 A 
ATOM     13  C   UNL     1       3.150  -1.122   0.564  1.00  0.00     0.019 A 
ATOM     14  C   UNL     1       2.944   1.298   0.619  1.00  0.00     0.130 A 
ATOM     15  C   UNL     1       4.325  -1.040   1.314  1.00  0.00     0.047 A 
ATOM     16  C   UNL     1       4.127   1.369   1.370  1.00  0.00     0.093 A 
ATOM     17  C   UNL     1       4.817   0.205   1.718  1.00  0.00     0.119 A 
BRANCH  14  18
ATOM     18  O   UNL     1       2.262   2.471   0.296  1.00  0.00    -0.507 OA
ATOM     19  H   UNL     1       2.602   3.381   0.586  1.00  0.00     0.293 HD
ENDBRANCH  14  18
BRANCH  17  20
ATOM     20  O   UNL     1       5.989   0.298   2.465  1.00  0.00    -0.508 OA
ATOM     21  H   UNL     1       6.512  -0.527   2.734  1.00  0.00     0.293 HD
ENDBRANCH  17  20
ENDBRANCH  10  12
ENDBRANCH   1  10
TORSDOF 6
