REMARK SMILES CC(=O)NC[C@]1(O)CCC[C@H](C)C1
REMARK SMILES IDX 6 1 8 2 9 3 10 4 11 5 12 6 13 7 5 8 4 9 2 10 1 11 3 12 7 14
REMARK H PARENT 4 13 7 15
ROOT
ATOM      1  C   UNL     1       0.018   0.289   0.208  1.00  0.00     0.082 C 
ATOM      2  C   UNL     1      -0.286  -1.227   0.380  1.00  0.00     0.037 C 
ATOM      3  C   UNL     1      -1.615  -1.462   1.109  1.00  0.00     0.003 C 
ATOM      4  C   UNL     1      -2.775  -0.782   0.375  1.00  0.00     0.003 C 
ATOM      5  C   UNL     1      -2.509   0.724   0.204  1.00  0.00    -0.011 C 
ATOM      6  C   UNL     1      -3.662   1.388  -0.558  1.00  0.00     0.008 C 
ATOM      7  C   UNL     1      -1.171   0.957  -0.528  1.00  0.00     0.040 C 
ENDROOT
BRANCH   1   8
ATOM      8  C   UNL     1       1.298   0.505  -0.644  1.00  0.00     0.151 C 
BRANCH   8   9
ATOM      9  N   UNL     1       2.505  -0.054  -0.028  1.00  0.00    -0.353 N 
ATOM     10  C   UNL     1       3.779   0.039  -0.677  1.00  0.00     0.216 C 
ATOM     11  C   UNL     1       4.992  -0.540  -0.024  1.00  0.00     0.114 C 
ATOM     12  O   UNL     1       3.887   0.617  -1.792  1.00  0.00    -0.275 OA
ATOM     13  H   UNL     1       2.466  -0.533   0.898  1.00  0.00     0.163 HD
ENDBRANCH   8   9
ENDBRANCH   1   8
BRANCH   1  14
ATOM     14  O   UNL     1       0.167   0.929   1.457  1.00  0.00    -0.388 OA
ATOM     15  H   UNL     1       0.746   0.370   2.035  1.00  0.00     0.211 HD
ENDBRANCH   1  14
TORSDOF 3
