REMARK SMILES O=c1[nH]c2ccccc2s1
REMARK SMILES IDX 1 1 2 2 3 3 4 4 5 5 6 6 7 7 8 8 9 9 10 10
REMARK H PARENT 3 11
ROOT
ATOM      1  O   UNL     1       3.857   0.389  -0.131  1.00  0.00    -0.257 OA
ATOM      2  C   UNL     1       2.600   0.413  -0.071  1.00  0.00     0.305 A 
ATOM      3  N   UNL     1       1.834  -0.699  -0.162  1.00  0.00    -0.312 N 
ATOM      4  C   UNL     1       0.514  -0.394  -0.068  1.00  0.00     0.059 A 
ATOM      5  C   UNL     1      -0.528  -1.323  -0.125  1.00  0.00     0.027 A 
ATOM      6  C   UNL     1      -1.850  -0.861  -0.013  1.00  0.00     0.002 A 
ATOM      7  C   UNL     1      -2.116   0.513   0.154  1.00  0.00     0.002 A 
ATOM      8  C   UNL     1      -1.061   1.439   0.210  1.00  0.00     0.021 A 
ATOM      9  C   UNL     1       0.241   0.958   0.097  1.00  0.00     0.056 A 
ATOM     10  S   UNL     1       1.685   1.821   0.129  1.00  0.00    -0.074 S 
ATOM     11  H   UNL     1       2.211  -1.665  -0.288  1.00  0.00     0.171 HD
ENDROOT
TORSDOF 0
