REMARK SMILES O=C1NC(=S)NC(=O)C1=Cc1cccc2cc3ccccc3cc12
REMARK SMILES IDX 3 1 2 2 1 3 9 4 7 5 8 6 6 7 4 8 5 9 10 12 11 13 12 14 24 15
REMARK SMILES IDX 13 16 23 17 15 18 14 19 22 20 16 21 21 22 17 23 20 24 18 25
REMARK SMILES IDX 19 26
REMARK H PARENT 3 10 6 11
ROOT
ATOM      1  N   UNL     1       4.729  -2.190   0.650  1.00  0.00    -0.299 N 
ATOM      2  C   UNL     1       3.487  -1.801   1.244  1.00  0.00     0.263 C 
ATOM      3  O   UNL     1       3.092  -2.400   2.282  1.00  0.00    -0.269 OA
ATOM      4  C   UNL     1       2.685  -0.700   0.653  1.00  0.00     0.106 C 
ATOM      5  C   UNL     1       3.169  -0.130  -0.637  1.00  0.00     0.263 C 
ATOM      6  O   UNL     1       2.462   0.669  -1.306  1.00  0.00    -0.269 OA
ATOM      7  N   UNL     1       4.441  -0.524  -1.161  1.00  0.00    -0.299 N 
ATOM      8  C   UNL     1       5.220  -1.542  -0.525  1.00  0.00     0.180 C 
ATOM      9  S   UNL     1       6.662  -1.985  -1.162  1.00  0.00    -0.040 S 
ATOM     10  H   UNL     1       5.288  -2.955   1.091  1.00  0.00     0.172 HD
ATOM     11  H   UNL     1       4.788  -0.082  -2.042  1.00  0.00     0.172 HD
ENDROOT
BRANCH   4  12
ATOM     12  C   UNL     1       1.561  -0.282   1.279  1.00  0.00     0.028 C 
BRANCH  12  13
ATOM     13  C   UNL     1       0.738   0.875   0.863  1.00  0.00    -0.017 A 
ATOM     14  C   UNL     1       1.300   2.160   0.931  1.00  0.00     0.009 A 
ATOM     15  C   UNL     1      -0.619   0.724   0.478  1.00  0.00    -0.010 A 
ATOM     16  C   UNL     1       0.547   3.284   0.594  1.00  0.00     0.001 A 
ATOM     17  C   UNL     1      -1.233  -0.543   0.405  1.00  0.00     0.018 A 
ATOM     18  C   UNL     1      -1.376   1.877   0.141  1.00  0.00    -0.017 A 
ATOM     19  C   UNL     1      -0.783   3.146   0.200  1.00  0.00     0.009 A 
ATOM     20  C   UNL     1      -2.574  -0.667   0.013  1.00  0.00    -0.018 A 
ATOM     21  C   UNL     1      -2.717   1.749  -0.251  1.00  0.00     0.017 A 
ATOM     22  C   UNL     1      -3.182  -1.931  -0.057  1.00  0.00     0.009 A 
ATOM     23  C   UNL     1      -3.321   0.487  -0.317  1.00  0.00    -0.018 A 
ATOM     24  C   UNL     1      -4.519  -2.047  -0.449  1.00  0.00     0.001 A 
ATOM     25  C   UNL     1      -4.663   0.357  -0.709  1.00  0.00     0.009 A 
ATOM     26  C   UNL     1      -5.257  -0.906  -0.774  1.00  0.00     0.001 A 
ENDBRANCH  12  13
ENDBRANCH   4  12
TORSDOF 2
