REMARK SMILES Cn1nc(NC(=O)C(F)(F)F)c2ncc(-c3ccc(Cl)cc3)nc21
REMARK SMILES IDX 1 1 2 2 3 3 4 4 12 5 13 6 14 7 15 8 23 9 24 10 5 11 6 12
REMARK SMILES IDX 7 14 8 15 9 16 10 17 11 18 16 19 17 20 22 21 18 22 21 23
REMARK SMILES IDX 19 24 20 25
REMARK H PARENT 5 13
ROOT
ATOM      1  C   UNL     1       0.913  -2.830  -2.320  1.00  0.00     0.176 C 
ATOM      2  N   UNL     1       1.400  -1.753  -1.469  1.00  0.00    -0.247 N 
ATOM      3  N   UNL     1       2.658  -1.316  -1.456  1.00  0.00    -0.151 NA
ATOM      4  C   UNL     1       2.720  -0.244  -0.623  1.00  0.00     0.183 A 
ATOM      5  C   UNL     1       1.450   0.007  -0.140  1.00  0.00     0.152 A 
ATOM      6  N   UNL     1       0.943   1.016   0.604  1.00  0.00    -0.247 NA
ATOM      7  C   UNL     1      -0.406   1.032   0.832  1.00  0.00     0.141 A 
ATOM      8  C   UNL     1      -1.245   0.026   0.262  1.00  0.00     0.091 A 
ATOM      9  N   UNL     1      -0.679  -0.957  -0.509  1.00  0.00    -0.225 NA
ATOM     10  C   UNL     1       0.663  -0.947  -0.687  1.00  0.00     0.179 A 
ENDROOT
BRANCH   4  11
ATOM     11  N   UNL     1       3.905   0.538  -0.428  1.00  0.00    -0.299 N 
ATOM     12  C   UNL     1       4.155   1.343   0.733  1.00  0.00     0.331 C 
ATOM     13  H   UNL     1       4.660   0.458  -1.146  1.00  0.00     0.171 HD
ATOM     14  O   UNL     1       3.474   1.182   1.781  1.00  0.00    -0.264 OA
BRANCH  12  15
ATOM     15  C   UNL     1       5.299   2.310   0.737  1.00  0.00     0.471 C 
ATOM     16  F   UNL     1       5.162   3.215   1.775  1.00  0.00    -0.162 F 
ATOM     17  F   UNL     1       5.332   3.003  -0.459  1.00  0.00    -0.162 F 
ATOM     18  F   UNL     1       6.484   1.616   0.894  1.00  0.00    -0.162 F 
ENDBRANCH  12  15
ENDBRANCH   4  11
BRANCH   8  19
ATOM     19  C   UNL     1      -2.714   0.017   0.483  1.00  0.00     0.002 A 
ATOM     20  C   UNL     1      -3.431   1.209   0.709  1.00  0.00     0.012 A 
ATOM     21  C   UNL     1      -3.419  -1.201   0.444  1.00  0.00     0.012 A 
ATOM     22  C   UNL     1      -4.815   1.177   0.907  1.00  0.00     0.021 A 
ATOM     23  C   UNL     1      -4.803  -1.228   0.643  1.00  0.00     0.021 A 
ATOM     24  C   UNL     1      -5.501  -0.040   0.877  1.00  0.00     0.041 A 
ATOM     25  Cl  UNL     1      -7.237  -0.076   1.126  1.00  0.00    -0.084 Cl
ENDBRANCH   8  19
TORSDOF 3
