REMARK SMILES Cc1nc(NCc2ccccc2)c2ccnc-2[nH]1
REMARK SMILES IDX 5 1 4 3 18 4 2 5 17 6 3 7 16 8 13 9 15 10 14 11 1 13 6 14
REMARK SMILES IDX 7 15 8 16 12 17 9 18 11 19 10 20
REMARK H PARENT 5 2 18 12
ROOT
ATOM      1  N   UNL     1       0.265   0.193   0.146  1.00  0.00    -0.365 N 
ATOM      2  H   UNL     1       0.786   1.048  -0.156  1.00  0.00     0.162 HD
ENDROOT
BRANCH   1   3
ATOM      3  C   UNL     1      -1.169   0.218   0.150  1.00  0.00     0.139 A 
ATOM      4  N   UNL     1      -3.981   0.218   0.185  1.00  0.00    -0.328 N 
ATOM      5  C   UNL     1      -3.266  -0.892   0.554  1.00  0.00     0.106 A 
ATOM      6  C   UNL     1      -3.300   1.320  -0.205  1.00  0.00     0.142 A 
ATOM      7  N   UNL     1      -1.892  -0.877   0.538  1.00  0.00    -0.218 NA
ATOM      8  N   UNL     1      -3.827   2.490  -0.600  1.00  0.00    -0.238 NA
ATOM      9  C   UNL     1      -1.880   1.346  -0.233  1.00  0.00     0.061 A 
ATOM     10  C   UNL     1      -2.746   3.265  -0.880  1.00  0.00     0.114 A 
ATOM     11  C   UNL     1      -1.535   2.602  -0.668  1.00  0.00     0.036 A 
ATOM     12  H   UNL     1      -5.026   0.220   0.202  1.00  0.00     0.169 HD
ATOM     13  C   UNL     1      -3.983  -2.122   1.008  1.00  0.00     0.087 C 
ENDBRANCH   1   3
BRANCH   1  14
ATOM     14  C   UNL     1       1.006  -1.000   0.552  1.00  0.00     0.150 C 
BRANCH  14  15
ATOM     15  C   UNL     1       2.489  -0.761   0.456  1.00  0.00    -0.029 A 
ATOM     16  C   UNL     1       3.191  -0.220   1.545  1.00  0.00     0.005 A 
ATOM     17  C   UNL     1       3.170  -1.015  -0.747  1.00  0.00     0.005 A 
ATOM     18  C   UNL     1       4.562   0.037   1.440  1.00  0.00     0.000 A 
ATOM     19  C   UNL     1       4.540  -0.756  -0.847  1.00  0.00     0.000 A 
ATOM     20  C   UNL     1       5.237  -0.233   0.246  1.00  0.00     0.000 A 
ENDBRANCH  14  15
ENDBRANCH   1  14
TORSDOF 3
