REMARK SMILES Cn1ncc2c(Sc3ccc(Cl)cc3)ncnc21
REMARK SMILES IDX 7 1 6 2 2 3 3 4 18 5 4 6 17 7 5 8 16 9 15 10 1 11 8 12 9 13
REMARK SMILES IDX 14 14 10 15 13 16 11 17 12 18
REMARK H PARENT
ROOT
ATOM      1  S   UNL     1       1.128  -0.382   2.407  1.00  0.00    -0.069 SA
ENDROOT
BRANCH   1   2
ATOM      2  C   UNL     1      -0.237  -0.912   1.375  1.00  0.00     0.115 A 
ATOM      3  N   UNL     1      -3.109   0.524  -0.052  1.00  0.00    -0.250 N 
ATOM      4  N   UNL     1      -2.658   1.616   0.558  1.00  0.00    -0.179 NA
ATOM      5  C   UNL     1      -2.256  -0.481   0.198  1.00  0.00     0.162 A 
ATOM      6  C   UNL     1      -1.515   1.294   1.217  1.00  0.00     0.148 A 
ATOM      7  N   UNL     1      -2.327  -1.758  -0.251  1.00  0.00    -0.217 NA
ATOM      8  C   UNL     1      -1.249  -0.042   0.991  1.00  0.00     0.072 A 
ATOM      9  C   UNL     1      -1.339  -2.624   0.126  1.00  0.00     0.225 A 
ATOM     10  N   UNL     1      -0.309  -2.201   0.929  1.00  0.00    -0.229 NA
ATOM     11  C   UNL     1      -4.285   0.485  -0.911  1.00  0.00     0.176 C 
ENDBRANCH   1   2
BRANCH   1  12
ATOM     12  C   UNL     1       2.150   0.037   0.994  1.00  0.00     0.014 A 
ATOM     13  C   UNL     1       2.131   1.337   0.473  1.00  0.00     0.017 A 
ATOM     14  C   UNL     1       2.973  -0.935   0.411  1.00  0.00     0.017 A 
ATOM     15  C   UNL     1       2.924   1.660  -0.632  1.00  0.00     0.021 A 
ATOM     16  C   UNL     1       3.766  -0.611  -0.694  1.00  0.00     0.021 A 
ATOM     17  C   UNL     1       3.741   0.687  -1.218  1.00  0.00     0.041 A 
ATOM     18  Cl  UNL     1       4.735   1.093  -2.605  1.00  0.00    -0.084 Cl
ENDBRANCH   1  12
TORSDOF 2
