REMARK SMILES Cn1ncc2c(=Nc3ccccc3Cl)nc(Cl)[nH]c21
REMARK SMILES IDX 7 1 6 2 18 3 16 4 19 5 15 6 2 7 5 8 3 9 4 10 17 12 1 13 8 14
REMARK SMILES IDX 9 15 13 16 10 17 12 18 11 19 14 20
REMARK H PARENT 18 11
ROOT
ATOM      1  N   UNL     1       0.972  -0.869  -0.495  1.00  0.00    -0.227 NA
ENDROOT
BRANCH   1   2
ATOM      2  C   UNL     1      -0.114  -0.206  -0.228  1.00  0.00     0.168 A 
ATOM      3  N   UNL     1      -2.452   1.202   0.308  1.00  0.00    -0.315 N 
ATOM      4  C   UNL     1      -1.230   1.808   0.420  1.00  0.00     0.203 A 
ATOM      5  C   UNL     1      -2.486  -0.099  -0.075  1.00  0.00     0.141 A 
ATOM      6  N   UNL     1      -0.081   1.109   0.151  1.00  0.00    -0.199 NA
ATOM      7  N   UNL     1      -3.564  -0.880  -0.250  1.00  0.00    -0.252 N 
ATOM      8  C   UNL     1      -1.361  -0.806  -0.344  1.00  0.00     0.082 A 
ATOM      9  N   UNL     1      -3.150  -2.086  -0.630  1.00  0.00    -0.179 NA
ATOM     10  C   UNL     1      -1.794  -2.069  -0.696  1.00  0.00     0.149 A 
ATOM     11  H   UNL     1      -3.331   1.729   0.511  1.00  0.00     0.171 HD
ATOM     12  Cl  UNL     1      -1.122   3.488   0.909  1.00  0.00    -0.043 Cl
ATOM     13  C   UNL     1      -4.961  -0.509  -0.067  1.00  0.00     0.176 C 
ENDBRANCH   1   2
BRANCH   1  14
ATOM     14  C   UNL     1       2.300  -0.341  -0.370  1.00  0.00     0.084 A 
ATOM     15  C   UNL     1       3.117  -0.291  -1.507  1.00  0.00     0.030 A 
ATOM     16  C   UNL     1       2.818   0.074   0.876  1.00  0.00     0.066 A 
ATOM     17  C   UNL     1       4.419   0.210  -1.421  1.00  0.00     0.002 A 
ATOM     18  C   UNL     1       4.124   0.575   0.953  1.00  0.00     0.023 A 
ATOM     19  C   UNL     1       4.920   0.648  -0.193  1.00  0.00     0.002 A 
ATOM     20  Cl  UNL     1       1.889  -0.087   2.362  1.00  0.00    -0.082 Cl
ENDBRANCH   1  14
TORSDOF 2
