REMARK SMILES CC(=O)Oc1c(C)c(OC(C)=O)c2c(c1C(C)=O)O[C@@H]1C=C(O)[C@H](C(C)=O)C(=O)[C@]21C
REMARK SMILES IDX 22 1 21 2 20 3 19 4 14 5 15 6 5 7 6 8 7 9 8 10 13 11 30 12
REMARK SMILES IDX 31 13 28 14 29 15 24 16 23 17 25 19 26 20 27 21 16 22 17 23
REMARK SMILES IDX 18 24 9 25 10 26 11 27 12 28 4 29 2 30 1 31 3 32
REMARK H PARENT 23 18
ROOT
ATOM      1  C   UNL     1       3.544  -2.170  -0.891  1.00  0.00     0.110 C 
ATOM      2  C   UNL     1       2.523  -2.456  -1.696  1.00  0.00     0.061 C 
ATOM      3  C   UNL     1       1.321  -1.580  -1.867  1.00  0.00     0.218 C 
ATOM      4  O   UNL     1       0.235  -2.089  -1.099  1.00  0.00    -0.483 OA
ATOM      5  C   UNL     1      -0.439  -1.060  -0.476  1.00  0.00     0.142 A 
ATOM      6  C   UNL     1      -1.625  -1.180   0.258  1.00  0.00     0.103 A 
ATOM      7  C   UNL     1      -2.181   0.003   0.811  1.00  0.00     0.152 A 
ATOM      8  C   UNL     1      -1.506   1.244   0.667  1.00  0.00     0.036 A 
ATOM      9  C   UNL     1      -2.074   2.478   1.318  1.00  0.00     0.052 C 
ATOM     10  C   UNL     1      -0.330   1.321  -0.124  1.00  0.00     0.145 A 
ATOM     11  C   UNL     1       0.199   0.139  -0.661  1.00  0.00     0.056 A 
ATOM     12  C   UNL     1       1.475  -0.076  -1.444  1.00  0.00     0.100 C 
ATOM     13  C   UNL     1       1.544   0.825  -2.695  1.00  0.00     0.029 C 
ATOM     14  C   UNL     1       2.667   0.189  -0.534  1.00  0.00     0.165 C 
ATOM     15  O   UNL     1       2.857   1.333  -0.113  1.00  0.00    -0.297 OA
ATOM     16  C   UNL     1       3.626  -0.898  -0.095  1.00  0.00     0.189 C 
ENDROOT
BRANCH   1  17
ATOM     17  O   UNL     1       4.572  -3.104  -0.773  1.00  0.00    -0.511 OA
ATOM     18  H   UNL     1       5.356  -2.951  -0.153  1.00  0.00     0.293 HD
ENDBRANCH   1  17
BRANCH  16  19
ATOM     19  C   UNL     1       3.452  -1.191   1.381  1.00  0.00     0.147 C 
ATOM     20  C   UNL     1       4.548  -0.833   2.348  1.00  0.00     0.089 C 
ATOM     21  O   UNL     1       2.407  -1.681   1.803  1.00  0.00    -0.299 OA
ENDBRANCH  16  19
BRANCH   6  22
ATOM     22  C   UNL     1      -2.246  -2.517   0.433  1.00  0.00     0.167 C 
ATOM     23  C   UNL     1      -2.870  -2.941   1.728  1.00  0.00     0.094 C 
ATOM     24  O   UNL     1      -2.228  -3.339  -0.522  1.00  0.00    -0.294 OA
ENDBRANCH   6  22
BRANCH  10  25
ATOM     25  O   UNL     1       0.303   2.542  -0.386  1.00  0.00    -0.426 OA
BRANCH  25  26
ATOM     26  C   UNL     1      -0.310   3.577  -1.103  1.00  0.00     0.308 C 
ATOM     27  C   UNL     1       0.404   4.874  -1.272  1.00  0.00     0.139 C 
ATOM     28  O   UNL     1      -1.429   3.399  -1.665  1.00  0.00    -0.252 OA
ENDBRANCH  25  26
ENDBRANCH  10  25
BRANCH   7  29
ATOM     29  O   UNL     1      -3.406  -0.026   1.491  1.00  0.00    -0.425 OA
BRANCH  29  30
ATOM     30  C   UNL     1      -4.623  -0.285   0.848  1.00  0.00     0.308 C 
ATOM     31  C   UNL     1      -5.884  -0.316   1.645  1.00  0.00     0.139 C 
ATOM     32  O   UNL     1      -4.672  -0.453  -0.404  1.00  0.00    -0.252 OA
ENDBRANCH  29  30
ENDBRANCH   7  29
TORSDOF 7
