REMARK SMILES Cc1nc2ccccc2nc1N1CCCC1
REMARK SMILES IDX 1 1 2 2 3 3 4 4 5 5 6 6 7 7 8 8 9 9 10 10 11 11 12 12 13 13
REMARK SMILES IDX 16 14 14 15 15 16
REMARK H PARENT
ROOT
ATOM      1  C   UNL     1      -0.269  -2.696   0.605  1.00  0.00     0.071 C 
ATOM      2  C   UNL     1       0.490  -1.423   0.392  1.00  0.00     0.081 A 
ATOM      3  N   UNL     1       1.831  -1.424   0.630  1.00  0.00    -0.248 NA
ATOM      4  C   UNL     1       2.596  -0.323   0.420  1.00  0.00     0.089 A 
ATOM      5  C   UNL     1       3.972  -0.351   0.669  1.00  0.00     0.030 A 
ATOM      6  C   UNL     1       4.744   0.793   0.436  1.00  0.00     0.002 A 
ATOM      7  C   UNL     1       4.143   1.962  -0.046  1.00  0.00     0.002 A 
ATOM      8  C   UNL     1       2.766   1.992  -0.296  1.00  0.00     0.031 A 
ATOM      9  C   UNL     1       1.991   0.851  -0.063  1.00  0.00     0.091 A 
ATOM     10  N   UNL     1       0.654   0.862  -0.293  1.00  0.00    -0.227 NA
ATOM     11  C   UNL     1      -0.126  -0.232  -0.067  1.00  0.00     0.150 A 
ENDROOT
BRANCH  11  12
ATOM     12  N   UNL     1      -1.541  -0.141  -0.319  1.00  0.00    -0.355 N 
ATOM     13  C   UNL     1      -2.079   0.714  -1.366  1.00  0.00     0.118 C 
ATOM     14  C   UNL     1      -2.558  -0.521   0.651  1.00  0.00     0.118 C 
ATOM     15  C   UNL     1      -3.586   0.720  -1.159  1.00  0.00     0.023 C 
ATOM     16  C   UNL     1      -3.796   0.286   0.287  1.00  0.00     0.023 C 
ENDBRANCH  11  12
TORSDOF 1
