REMARK SMILES C=CCOc1ccnc(-c2ccccc2)n1
REMARK SMILES IDX 3 1 2 2 1 3 4 4 5 5 6 6 16 7 7 8 9 9 8 10 10 11 11 12 15 13
REMARK SMILES IDX 12 14 14 15 13 16
REMARK H PARENT
ROOT
ATOM      1  C   UNL     1       2.792  -1.005  -0.585  1.00  0.00     0.258 C 
ENDROOT
BRANCH   1   2
ATOM      2  C   UNL     1       4.231  -1.389  -0.751  1.00  0.00     0.006 C 
ATOM      3  C   UNL     1       5.135  -1.123   0.197  1.00  0.00     0.007 C 
ENDBRANCH   1   2
BRANCH   1   4
ATOM      4  O   UNL     1       2.677   0.413  -0.532  1.00  0.00    -0.473 OA
BRANCH   4   5
ATOM      5  C   UNL     1       1.451   1.066  -0.376  1.00  0.00     0.217 A 
ATOM      6  C   UNL     1       1.414   2.459  -0.331  1.00  0.00     0.088 A 
ATOM      7  N   UNL     1       0.293   0.360  -0.268  1.00  0.00    -0.193 NA
ATOM      8  C   UNL     1       0.181   3.088  -0.175  1.00  0.00     0.119 A 
ATOM      9  C   UNL     1      -0.908   0.984  -0.116  1.00  0.00     0.163 A 
ATOM     10  N   UNL     1      -0.951   2.344  -0.071  1.00  0.00    -0.236 NA
BRANCH   9  11
ATOM     11  C   UNL     1      -2.156   0.189  -0.001  1.00  0.00     0.019 A 
ATOM     12  C   UNL     1      -2.116  -1.219  -0.046  1.00  0.00     0.012 A 
ATOM     13  C   UNL     1      -3.402   0.827   0.157  1.00  0.00     0.012 A 
ATOM     14  C   UNL     1      -3.293  -1.966   0.063  1.00  0.00     0.001 A 
ATOM     15  C   UNL     1      -4.575   0.074   0.265  1.00  0.00     0.001 A 
ATOM     16  C   UNL     1      -4.521  -1.320   0.218  1.00  0.00     0.000 A 
ENDBRANCH   9  11
ENDBRANCH   4   5
ENDBRANCH   1   4
TORSDOF 4
