REMARK SMILES c1ccc(Nc2cccc3c(Nc4ccccc4)cccc23)cc1
REMARK SMILES IDX 6 1 7 2 8 3 9 4 10 5 11 6 19 7 20 8 21 9 22 10 5 11 4 13
REMARK SMILES IDX 1 14 2 15 24 16 3 17 23 18 12 19 13 21 14 22 18 23 15 24
REMARK SMILES IDX 17 25 16 26
REMARK H PARENT 5 12 12 20
ROOT
ATOM      1  C   UNL     1      -1.925   0.760  -0.160  1.00  0.00     0.046 A 
ATOM      2  C   UNL     1      -2.200   0.375  -1.481  1.00  0.00     0.027 A 
ATOM      3  C   UNL     1      -1.167   0.173  -2.392  1.00  0.00     0.003 A 
ATOM      4  C   UNL     1       0.158   0.368  -2.008  1.00  0.00     0.011 A 
ATOM      5  C   UNL     1       0.472   0.774  -0.697  1.00  0.00     0.007 A 
ATOM      6  C   UNL     1       1.816   0.970  -0.293  1.00  0.00     0.046 A 
ATOM      7  C   UNL     1       2.092   1.342   1.031  1.00  0.00     0.027 A 
ATOM      8  C   UNL     1       1.061   1.504   1.953  1.00  0.00     0.003 A 
ATOM      9  C   UNL     1      -0.264   1.315   1.568  1.00  0.00     0.011 A 
ATOM     10  C   UNL     1      -0.582   0.961   0.243  1.00  0.00     0.007 A 
ENDROOT
BRANCH   1  11
ATOM     11  N   UNL     1      -3.017   1.004   0.745  1.00  0.00    -0.355 N 
ATOM     12  H   UNL     1      -3.025   1.909   1.267  1.00  0.00     0.167 HD
BRANCH  11  13
ATOM     13  C   UNL     1      -4.133   0.111   0.910  1.00  0.00     0.038 A 
ATOM     14  C   UNL     1      -6.324  -1.605   1.295  1.00  0.00     0.000 A 
ATOM     15  C   UNL     1      -5.123  -2.109   0.787  1.00  0.00     0.002 A 
ATOM     16  C   UNL     1      -6.430  -0.251   1.621  1.00  0.00     0.002 A 
ATOM     17  C   UNL     1      -4.029  -1.258   0.600  1.00  0.00     0.026 A 
ATOM     18  C   UNL     1      -5.339   0.603   1.436  1.00  0.00     0.026 A 
ENDBRANCH  11  13
ENDBRANCH   1  11
BRANCH   6  19
ATOM     19  N   UNL     1       2.899   0.854  -1.232  1.00  0.00    -0.355 N 
ATOM     20  H   UNL     1       2.814   1.365  -2.140  1.00  0.00     0.167 HD
BRANCH  19  21
ATOM     21  C   UNL     1       4.121   0.144  -0.961  1.00  0.00     0.038 A 
ATOM     22  C   UNL     1       5.274   0.446  -1.703  1.00  0.00     0.026 A 
ATOM     23  C   UNL     1       4.175  -0.881   0.002  1.00  0.00     0.026 A 
ATOM     24  C   UNL     1       6.467  -0.244  -1.468  1.00  0.00     0.002 A 
ATOM     25  C   UNL     1       5.370  -1.569   0.234  1.00  0.00     0.002 A 
ATOM     26  C   UNL     1       6.516  -1.249  -0.498  1.00  0.00     0.000 A 
ENDBRANCH  19  21
ENDBRANCH   6  19
TORSDOF 4
