REMARK SMILES CC1=CC(O)=CC(C)(C)[C@@]1(O)/C=C/C(C)=C/C(=O)[O-]
REMARK SMILES IDX 13 1 12 2 10 3 4 4 6 5 3 6 7 7 2 8 8 9 9 10 1 11 5 12 11 14
REMARK SMILES IDX 14 16 15 17 16 18 17 19 18 20 19 21
REMARK H PARENT 5 13 11 15
ROOT
ATOM      1  C   UNL     1       1.211   0.367   0.003  1.00  0.00     0.002 C 
ENDROOT
BRANCH   1   2
ATOM      2  C   UNL     1       0.580  -0.694  -0.522  1.00  0.00     0.013 C 
BRANCH   2   3
ATOM      3  C   UNL     1      -0.864  -1.073  -0.195  1.00  0.00     0.113 C 
ATOM      4  C   UNL     1      -1.852   0.985   1.601  1.00  0.00     0.112 C 
ATOM      5  C   UNL     1      -2.004   1.171   0.285  1.00  0.00     0.029 C 
ATOM      6  C   UNL     1      -1.423  -0.320   2.125  1.00  0.00     0.048 C 
ATOM      7  C   UNL     1      -1.920   0.011  -0.689  1.00  0.00     0.023 C 
ATOM      8  C   UNL     1      -0.970  -1.292   1.316  1.00  0.00    -0.034 C 
ATOM      9  C   UNL     1      -3.336  -0.610  -0.764  1.00  0.00     0.019 C 
ATOM     10  C   UNL     1      -1.570   0.571  -2.089  1.00  0.00     0.019 C 
ATOM     11  C   UNL     1      -0.442  -2.556   1.943  1.00  0.00     0.043 C 
BRANCH   4  12
ATOM     12  O   UNL     1      -2.076   2.030   2.496  1.00  0.00    -0.508 OA
ATOM     13  H   UNL     1      -2.366   2.950   2.184  1.00  0.00     0.293 HD
ENDBRANCH   4  12
BRANCH   3  14
ATOM     14  O   UNL     1      -1.145  -2.311  -0.815  1.00  0.00    -0.380 OA
ATOM     15  H   UNL     1      -1.004  -2.215  -1.793  1.00  0.00     0.212 HD
ENDBRANCH   3  14
ENDBRANCH   2   3
ENDBRANCH   1   2
BRANCH   1  16
ATOM     16  C   UNL     1       2.617   0.712  -0.326  1.00  0.00    -0.050 C 
ATOM     17  C   UNL     1       3.178   0.374  -1.688  1.00  0.00     0.044 C 
BRANCH  16  18
ATOM     18  C   UNL     1       3.345   1.348   0.616  1.00  0.00     0.028 C 
BRANCH  18  19
ATOM     19  C   UNL     1       4.775   1.712   0.517  1.00  0.00     0.064 C 
ATOM     20  O   UNL     1       5.521   1.246  -0.384  1.00  0.00    -0.545 OA
ATOM     21  O   UNL     1       5.321   2.556   1.475  1.00  0.00    -0.545 OA
ENDBRANCH  18  19
ENDBRANCH  16  18
ENDBRANCH   1  16
TORSDOF 7
