REMARK SMILES O=C([O-])c1[nH]c(=O)[nH]c(=O)c1F
REMARK SMILES IDX 4 1 5 2 11 3 6 4 9 5 12 6 7 7 8 8 10 9 2 12 1 13 3 14
REMARK H PARENT 5 10 8 11
ROOT
ATOM      1  C   UNL     1       0.857  -0.066   0.015  1.00  0.00     0.107 A 
ATOM      2  N   UNL     1       0.096  -1.187   0.185  1.00  0.00    -0.303 N 
ATOM      3  C   UNL     1       0.215   1.170  -0.181  1.00  0.00     0.213 A 
ATOM      4  C   UNL     1      -1.264  -1.127   0.169  1.00  0.00     0.326 A 
ATOM      5  C   UNL     1      -1.181   1.207  -0.194  1.00  0.00     0.290 A 
ATOM      6  F   UNL     1       0.918   2.318  -0.355  1.00  0.00    -0.198 F 
ATOM      7  O   UNL     1      -1.942  -2.178   0.328  1.00  0.00    -0.248 OA
ATOM      8  N   UNL     1      -1.894   0.063  -0.020  1.00  0.00    -0.272 N 
ATOM      9  O   UNL     1      -1.781   2.302  -0.367  1.00  0.00    -0.266 OA
ATOM     10  H   UNL     1       0.553  -2.116   0.332  1.00  0.00     0.172 HD
ATOM     11  H   UNL     1      -2.939   0.099  -0.030  1.00  0.00     0.175 HD
ENDROOT
BRANCH   1  12
ATOM     12  C   UNL     1       2.336  -0.165   0.038  1.00  0.00     0.091 C 
ATOM     13  O   UNL     1       2.894  -1.280   0.214  1.00  0.00    -0.543 OA
ATOM     14  O   UNL     1       3.132   0.962  -0.133  1.00  0.00    -0.543 OA
ENDBRANCH   1  12
TORSDOF 1
