REMARK SMILES CCOP(=O)(OCC)/C(C#N)=C/c1c[nH]c2ccccc12
REMARK SMILES IDX 4 1 5 2 3 3 2 4 1 5 6 6 7 7 8 8 9 9 10 10 11 11 12 12 13 13
REMARK SMILES IDX 14 14 21 15 15 16 20 17 16 18 19 19 17 20 18 21
REMARK H PARENT 15 22
ROOT
ATOM      1  P   UNL     1      -2.052  -0.423   1.087  1.00  0.00     0.371 P 
ATOM      2  O   UNL     1      -1.847  -1.036   2.456  1.00  0.00    -0.254 OA
ENDROOT
BRANCH   1   3
ATOM      3  O   UNL     1      -3.419  -1.110   0.324  1.00  0.00    -0.305 OA
BRANCH   3   4
ATOM      4  C   UNL     1      -3.437  -2.495   0.577  1.00  0.00     0.168 C 
ATOM      5  C   UNL     1      -4.526  -3.139  -0.267  1.00  0.00     0.035 C 
ENDBRANCH   3   4
ENDBRANCH   1   3
BRANCH   1   6
ATOM      6  O   UNL     1      -2.292   1.254   1.289  1.00  0.00    -0.305 OA
BRANCH   6   7
ATOM      7  C   UNL     1      -2.629   1.810   0.040  1.00  0.00     0.168 C 
ATOM      8  C   UNL     1      -2.799   3.313   0.197  1.00  0.00     0.035 C 
ENDBRANCH   6   7
ENDBRANCH   1   6
BRANCH   1   9
ATOM      9  C   UNL     1      -0.575  -0.696   0.100  1.00  0.00     0.142 C 
BRANCH   9  10
ATOM     10  C   UNL     1      -0.732  -1.291  -1.204  1.00  0.00     0.108 C 
ATOM     11  N   UNL     1      -0.865  -1.767  -2.250  1.00  0.00    -0.192 NA
ENDBRANCH   9  10
BRANCH   9  12
ATOM     12  C   UNL     1       0.606  -0.246   0.553  1.00  0.00     0.038 C 
BRANCH  12  13
ATOM     13  C   UNL     1       1.899  -0.384  -0.152  1.00  0.00     0.001 A 
ATOM     14  C   UNL     1       2.328  -1.419  -0.986  1.00  0.00     0.091 A 
ATOM     15  C   UNL     1       2.988   0.457  -0.024  1.00  0.00     0.007 A 
ATOM     16  N   UNL     1       3.608  -1.216  -1.373  1.00  0.00    -0.361 N 
ATOM     17  C   UNL     1       3.158   1.641   0.697  1.00  0.00     0.011 A 
ATOM     18  C   UNL     1       3.999  -0.074  -0.783  1.00  0.00     0.046 A 
ATOM     19  C   UNL     1       4.410   2.280   0.625  1.00  0.00     0.001 A 
ATOM     20  C   UNL     1       5.250   0.536  -0.871  1.00  0.00     0.027 A 
ATOM     21  C   UNL     1       5.450   1.730  -0.155  1.00  0.00     0.002 A 
ATOM     22  H   UNL     1       4.181  -1.838  -1.986  1.00  0.00     0.166 HD
ENDBRANCH  12  13
ENDBRANCH   9  12
ENDBRANCH   1   9
TORSDOF 8
