REMARK SMILES O=C1Nc2ccccc2[C@@]1(O)Cc1ccccn1
REMARK SMILES IDX 1 1 2 2 3 3 4 4 5 5 6 6 7 7 8 8 9 9 10 10 11 12 12 14 13 15
REMARK SMILES IDX 14 16 18 17 15 18 17 19 16 20
REMARK H PARENT 3 11 11 13
ROOT
ATOM      1  O   UNL     1      -1.803  -2.990  -1.780  1.00  0.00    -0.271 OA
ATOM      2  C   UNL     1      -1.790  -1.956  -1.061  1.00  0.00     0.261 C 
ATOM      3  N   UNL     1      -2.876  -1.591  -0.217  1.00  0.00    -0.323 N 
ATOM      4  C   UNL     1      -2.491  -0.356   0.359  1.00  0.00     0.047 A 
ATOM      5  C   UNL     1      -3.270   0.432   1.205  1.00  0.00     0.026 A 
ATOM      6  C   UNL     1      -2.755   1.669   1.624  1.00  0.00     0.002 A 
ATOM      7  C   UNL     1      -1.492   2.102   1.177  1.00  0.00     0.001 A 
ATOM      8  C   UNL     1      -0.729   1.296   0.316  1.00  0.00     0.009 A 
ATOM      9  C   UNL     1      -1.240   0.050  -0.065  1.00  0.00     0.017 A 
ATOM     10  C   UNL     1      -0.644  -0.973  -1.003  1.00  0.00     0.176 C 
ATOM     11  H   UNL     1      -3.785  -2.091  -0.101  1.00  0.00     0.170 HD
ENDROOT
BRANCH  10  12
ATOM     12  O   UNL     1      -0.380  -0.426  -2.274  1.00  0.00    -0.375 OA
ATOM     13  H   UNL     1      -1.216  -0.005  -2.608  1.00  0.00     0.212 HD
ENDBRANCH  10  12
BRANCH  10  14
ATOM     14  C   UNL     1       0.611  -1.660  -0.424  1.00  0.00     0.106 C 
BRANCH  14  15
ATOM     15  C   UNL     1       1.779  -0.721  -0.286  1.00  0.00     0.044 A 
ATOM     16  C   UNL     1       2.170  -0.239   0.973  1.00  0.00     0.024 A 
ATOM     17  N   UNL     1       2.455  -0.320  -1.398  1.00  0.00    -0.261 NA
ATOM     18  C   UNL     1       3.246   0.645   1.064  1.00  0.00     0.003 A 
ATOM     19  C   UNL     1       3.507   0.539  -1.329  1.00  0.00     0.111 A 
ATOM     20  C   UNL     1       3.921   1.039  -0.093  1.00  0.00     0.020 A 
ENDBRANCH  14  15
ENDBRANCH  10  14
TORSDOF 3
