REMARK SMILES CCOP(=O)(Nc1ccc2oc(=O)c3ccccc3c2c1)OCC
REMARK SMILES IDX 4 1 5 2 3 3 2 4 1 5 6 6 7 8 8 9 21 10 9 11 20 12 10 13 19 14
REMARK SMILES IDX 11 15 18 16 14 17 12 18 17 19 15 20 16 21 13 22 22 23 23 24
REMARK SMILES IDX 24 25
REMARK H PARENT 6 7
ROOT
ATOM      1  P   UNL     1      -2.922   0.482   0.883  1.00  0.00     0.432 P 
ATOM      2  O   UNL     1      -2.926   0.725   2.377  1.00  0.00    -0.235 OA
ENDROOT
BRANCH   1   3
ATOM      3  O   UNL     1      -3.413  -1.125   0.594  1.00  0.00    -0.293 OA
BRANCH   3   4
ATOM      4  C   UNL     1      -3.398  -1.349  -0.795  1.00  0.00     0.169 C 
ATOM      5  C   UNL     1      -3.829  -2.781  -1.071  1.00  0.00     0.035 C 
ENDBRANCH   3   4
ENDBRANCH   1   3
BRANCH   1   6
ATOM      6  N   UNL     1      -1.295   0.730   0.256  1.00  0.00    -0.293 N 
ATOM      7  H   UNL     1      -1.182   1.455  -0.487  1.00  0.00     0.172 HD
BRANCH   6   8
ATOM      8  C   UNL     1      -0.146  -0.043   0.656  1.00  0.00     0.044 A 
ATOM      9  C   UNL     1      -0.235  -1.062   1.619  1.00  0.00     0.030 A 
ATOM     10  C   UNL     1       1.097   0.229   0.061  1.00  0.00     0.038 A 
ATOM     11  C   UNL     1       0.895  -1.793   1.978  1.00  0.00     0.050 A 
ATOM     12  C   UNL     1       2.255  -0.504   0.414  1.00  0.00     0.027 A 
ATOM     13  C   UNL     1       2.132  -1.525   1.388  1.00  0.00     0.139 A 
ATOM     14  C   UNL     1       3.540  -0.276  -0.153  1.00  0.00    -0.000 A 
ATOM     15  O   UNL     1       3.183  -2.245   1.758  1.00  0.00    -0.422 OA
ATOM     16  C   UNL     1       3.790   0.715  -1.134  1.00  0.00     0.010 A 
ATOM     17  C   UNL     1       4.627  -1.079   0.284  1.00  0.00     0.068 A 
ATOM     18  C   UNL     1       4.396  -2.067   1.257  1.00  0.00     0.344 A 
ATOM     19  C   UNL     1       5.072   0.896  -1.656  1.00  0.00     0.001 A 
ATOM     20  C   UNL     1       5.913  -0.880  -0.256  1.00  0.00     0.016 A 
ATOM     21  C   UNL     1       6.129   0.102  -1.220  1.00  0.00     0.001 A 
ATOM     22  O   UNL     1       5.336  -2.799   1.669  1.00  0.00    -0.246 OA
ENDBRANCH   6   8
ENDBRANCH   1   6
BRANCH   1  23
ATOM     23  O   UNL     1      -4.011   1.550   0.113  1.00  0.00    -0.293 OA
BRANCH  23  24
ATOM     24  C   UNL     1      -3.748   2.860   0.555  1.00  0.00     0.169 C 
ATOM     25  C   UNL     1      -4.636   3.829  -0.211  1.00  0.00     0.035 C 
ENDBRANCH  23  24
ENDBRANCH   1  23
TORSDOF 6
