REMARK SMILES Cn1ncc2c(=Nc3ccccc3Cl)[nH]c(Cl)nc21
REMARK SMILES IDX 7 1 6 2 15 3 16 4 18 5 5 6 19 7 4 8 2 9 3 10 17 12 1 13 8 14
REMARK SMILES IDX 9 15 13 16 10 17 12 18 11 19 14 20
REMARK H PARENT 15 11
ROOT
ATOM      1  N   UNL     1      -0.835   0.325  -0.954  1.00  0.00    -0.229 NA
ENDROOT
BRANCH   1   2
ATOM      2  C   UNL     1       0.263   0.137  -0.277  1.00  0.00     0.145 A 
ATOM      3  N   UNL     1       0.263  -0.276   1.035  1.00  0.00    -0.314 N 
ATOM      4  C   UNL     1       1.440  -0.469   1.720  1.00  0.00     0.203 A 
ATOM      5  N   UNL     1       2.644  -0.241   1.113  1.00  0.00    -0.200 NA
ATOM      6  C   UNL     1       1.495   0.374  -0.871  1.00  0.00     0.082 A 
ATOM      7  C   UNL     1       2.639   0.181  -0.173  1.00  0.00     0.164 A 
ATOM      8  C   UNL     1       1.898   0.774  -2.130  1.00  0.00     0.149 A 
ATOM      9  N   UNL     1       3.699   0.455  -0.948  1.00  0.00    -0.250 N 
ATOM     10  N   UNL     1       3.256   0.808  -2.152  1.00  0.00    -0.179 NA
ATOM     11  H   UNL     1      -0.632  -0.443   1.545  1.00  0.00     0.171 HD
ATOM     12  Cl  UNL     1       1.407  -1.006   3.388  1.00  0.00    -0.043 Cl
ATOM     13  C   UNL     1       5.105   0.311  -0.597  1.00  0.00     0.176 C 
ENDBRANCH   1   2
BRANCH   1  14
ATOM     14  C   UNL     1      -2.164   0.066  -0.482  1.00  0.00     0.084 A 
ATOM     15  C   UNL     1      -3.058   1.136  -0.345  1.00  0.00     0.030 A 
ATOM     16  C   UNL     1      -2.606  -1.248  -0.218  1.00  0.00     0.066 A 
ATOM     17  C   UNL     1      -4.365   0.911   0.095  1.00  0.00     0.002 A 
ATOM     18  C   UNL     1      -3.918  -1.464   0.222  1.00  0.00     0.023 A 
ATOM     19  C   UNL     1      -4.793  -0.387   0.383  1.00  0.00     0.002 A 
ATOM     20  Cl  UNL     1      -1.556  -2.636  -0.471  1.00  0.00    -0.082 Cl
ENDBRANCH   1  14
TORSDOF 2
