REMARK SMILES O[C@H](c1cc(-c2ccc(C(F)(F)F)cc2)nc(C(F)(F)F)c1)[C@H]1CCCC[NH2+]1
REMARK SMILES IDX 3 1 4 2 22 3 5 4 17 5 16 6 2 7 23 8 28 9 24 10 27 11 25 12
REMARK SMILES IDX 26 13 1 16 6 18 7 19 15 20 8 21 14 22 9 23 10 24 11 25 12 26
REMARK SMILES IDX 13 27 18 28 19 29 20 30 21 31
REMARK H PARENT 28 14 28 15 1 17
ROOT
ATOM      1  C   UNL     1       0.373  -0.277  -0.966  1.00  0.00    -0.009 A 
ATOM      2  C   UNL     1      -0.400   0.778  -1.475  1.00  0.00     0.035 A 
ATOM      3  C   UNL     1       0.601  -1.402  -1.776  1.00  0.00     0.040 A 
ATOM      4  C   UNL     1      -0.955   0.686  -2.763  1.00  0.00     0.071 A 
ATOM      5  C   UNL     1       0.032  -1.467  -3.055  1.00  0.00     0.145 A 
ATOM      6  N   UNL     1      -0.712  -0.425  -3.512  1.00  0.00    -0.243 NA
ENDROOT
BRANCH   1   7
ATOM      7  C   UNL     1       0.999  -0.142   0.412  1.00  0.00     0.202 C 
BRANCH   7   8
ATOM      8  C   UNL     1       2.333   0.666   0.387  1.00  0.00     0.216 C 
ATOM      9  N   UNL     1       3.344   0.087  -0.529  1.00  0.00    -0.341 N 
ATOM     10  C   UNL     1       2.909   0.809   1.813  1.00  0.00     0.068 C 
ATOM     11  C   UNL     1       4.556   0.921  -0.585  1.00  0.00     0.260 C 
ATOM     12  C   UNL     1       4.193   1.643   1.795  1.00  0.00     0.012 C 
ATOM     13  C   UNL     1       5.199   1.058   0.800  1.00  0.00     0.062 C 
ATOM     14  H   UNL     1       2.956   0.038  -1.499  1.00  0.00     0.346 HD
ATOM     15  H   UNL     1       3.616  -0.878  -0.232  1.00  0.00     0.346 HD
ENDBRANCH   7   8
BRANCH   7  16
ATOM     16  O   UNL     1       1.111  -1.387   1.062  1.00  0.00    -0.382 OA
ATOM     17  H   UNL     1       1.889  -1.873   0.690  1.00  0.00     0.211 HD
ENDBRANCH   7  16
ENDBRANCH   1   7
BRANCH   4  18
ATOM     18  C   UNL     1      -1.780   1.780  -3.334  1.00  0.00     0.000 A 
ATOM     19  C   UNL     1      -1.783   2.003  -4.722  1.00  0.00     0.011 A 
ATOM     20  C   UNL     1      -2.586   2.593  -2.515  1.00  0.00     0.011 A 
ATOM     21  C   UNL     1      -2.564   3.022  -5.277  1.00  0.00     0.014 A 
ATOM     22  C   UNL     1      -3.366   3.611  -3.071  1.00  0.00     0.014 A 
ATOM     23  C   UNL     1      -3.376   3.826  -4.459  1.00  0.00     0.056 A 
BRANCH  23  24
ATOM     24  C   UNL     1      -4.179   4.961  -5.041  1.00  0.00     0.416 C 
ATOM     25  F   UNL     1      -4.440   4.749  -6.384  1.00  0.00    -0.166 F 
ATOM     26  F   UNL     1      -5.389   5.082  -4.379  1.00  0.00    -0.166 F 
ATOM     27  F   UNL     1      -3.470   6.140  -4.901  1.00  0.00    -0.166 F 
ENDBRANCH  23  24
ENDBRANCH   4  18
BRANCH   5  28
ATOM     28  C   UNL     1       0.301  -2.640  -3.952  1.00  0.00     0.433 C 
ATOM     29  F   UNL     1      -0.615  -2.674  -4.987  1.00  0.00    -0.165 F 
ATOM     30  F   UNL     1       0.203  -3.821  -3.237  1.00  0.00    -0.165 F 
ATOM     31  F   UNL     1       1.575  -2.532  -4.479  1.00  0.00    -0.165 F 
ENDBRANCH   5  28
TORSDOF 6
