REMARK SMILES NC(=O)c1ccc2c(c1)S(=O)(=O)c1ccccc1C2=O
REMARK SMILES IDX 4 1 5 2 6 3 7 4 8 5 9 6 10 7 11 8 12 9 13 10 14 11 15 12
REMARK SMILES IDX 16 13 17 14 18 15 19 16 20 17 2 18 1 19 3 22
REMARK H PARENT 1 20 1 21
ROOT
ATOM      1  C   UNL     1       3.056  -0.254   0.147  1.00  0.00     0.040 A 
ATOM      2  C   UNL     1       2.887  -0.571  -1.209  1.00  0.00     0.014 A 
ATOM      3  C   UNL     1       1.613  -0.597  -1.779  1.00  0.00     0.014 A 
ATOM      4  C   UNL     1       0.467  -0.315  -1.009  1.00  0.00     0.042 A 
ATOM      5  C   UNL     1       0.637  -0.010   0.355  1.00  0.00     0.084 A 
ATOM      6  C   UNL     1       1.918   0.016   0.924  1.00  0.00     0.035 A 
ATOM      7  S   UNL     1      -0.737   0.325   1.383  1.00  0.00     0.208 S 
ATOM      8  O   UNL     1      -0.560   1.671   2.027  1.00  0.00    -0.218 OA
ATOM      9  O   UNL     1      -0.849  -0.742   2.434  1.00  0.00    -0.218 OA
ATOM     10  C   UNL     1      -2.187   0.337   0.408  1.00  0.00     0.083 A 
ATOM     11  C   UNL     1      -3.404   0.670   1.021  1.00  0.00     0.021 A 
ATOM     12  C   UNL     1      -4.586   0.684   0.281  1.00  0.00     0.001 A 
ATOM     13  C   UNL     1      -4.561   0.364  -1.075  1.00  0.00     0.001 A 
ATOM     14  C   UNL     1      -3.354   0.029  -1.694  1.00  0.00     0.013 A 
ATOM     15  C   UNL     1      -2.146   0.011  -0.963  1.00  0.00     0.042 A 
ATOM     16  C   UNL     1      -0.877  -0.353  -1.659  1.00  0.00     0.195 C 
ATOM     17  O   UNL     1      -0.943  -0.707  -2.869  1.00  0.00    -0.289 OA
ENDROOT
BRANCH   1  18
ATOM     18  C   UNL     1       4.416  -0.233   0.739  1.00  0.00     0.248 C 
ATOM     19  N   UNL     1       4.705   0.517   1.923  1.00  0.00    -0.366 N 
ATOM     20  H   UNL     1       4.019   1.189   2.329  1.00  0.00     0.159 HD
ATOM     21  H   UNL     1       5.656   0.466   2.351  1.00  0.00     0.159 HD
ATOM     22  O   UNL     1       5.348  -0.876   0.184  1.00  0.00    -0.270 OA
ENDBRANCH   1  18
TORSDOF 1
