REMARK SMILES c1ccc(-c2nc(-c3ccccn3)nc(-c3ccccn3)n2)nc1
REMARK SMILES IDX 5 1 6 2 7 3 14 4 15 5 22 6 4 7 1 8 2 9 24 10 3 11 23 12 8 13
REMARK SMILES IDX 9 14 13 15 10 16 12 17 11 18 16 19 17 20 21 21 18 22 20 23
REMARK SMILES IDX 19 24
REMARK H PARENT
ROOT
ATOM      1  C   UNL     1       1.322   0.024   0.339  1.00  0.00     0.182 A 
ATOM      2  N   UNL     1       0.756   1.210  -0.003  1.00  0.00    -0.205 NA
ATOM      3  C   UNL     1      -0.555   1.275  -0.354  1.00  0.00     0.182 A 
ATOM      4  N   UNL     1      -1.301   0.139  -0.361  1.00  0.00    -0.205 NA
ATOM      5  C   UNL     1      -0.747  -1.053  -0.021  1.00  0.00     0.182 A 
ATOM      6  N   UNL     1       0.565  -1.105   0.328  1.00  0.00    -0.205 NA
ENDROOT
BRANCH   1   7
ATOM      7  C   UNL     1       2.747  -0.029   0.718  1.00  0.00     0.108 A 
ATOM      8  C   UNL     1       5.440  -0.050   1.421  1.00  0.00     0.020 A 
ATOM      9  C   UNL     1       4.716  -1.243   1.429  1.00  0.00     0.004 A 
ATOM     10  C   UNL     1       4.798   1.135   1.059  1.00  0.00     0.112 A 
ATOM     11  C   UNL     1       3.365  -1.240   1.077  1.00  0.00     0.032 A 
ATOM     12  N   UNL     1       3.481   1.120   0.720  1.00  0.00    -0.253 NA
ENDBRANCH   1   7
BRANCH   3  13
ATOM     13  C   UNL     1      -1.154   2.572  -0.723  1.00  0.00     0.108 A 
ATOM     14  C   UNL     1      -2.506   2.676  -1.091  1.00  0.00     0.032 A 
ATOM     15  N   UNL     1      -0.380   3.694  -0.706  1.00  0.00    -0.253 NA
ATOM     16  C   UNL     1      -3.031   3.924  -1.432  1.00  0.00     0.004 A 
ATOM     17  C   UNL     1      -0.874   4.918  -1.036  1.00  0.00     0.112 A 
ATOM     18  C   UNL     1      -2.213   5.054  -1.406  1.00  0.00     0.020 A 
ENDBRANCH   3  13
BRANCH   5  19
ATOM     19  C   UNL     1      -1.572  -2.277  -0.034  1.00  0.00     0.108 A 
ATOM     20  C   UNL     1      -1.031  -3.528   0.312  1.00  0.00     0.032 A 
ATOM     21  N   UNL     1      -2.885  -2.194  -0.388  1.00  0.00    -0.253 NA
ATOM     22  C   UNL     1      -1.848  -4.660   0.286  1.00  0.00     0.004 A 
ATOM     23  C   UNL     1      -3.695  -3.286  -0.419  1.00  0.00     0.112 A 
ATOM     24  C   UNL     1      -3.189  -4.542  -0.081  1.00  0.00     0.020 A 
ENDBRANCH   5  19
TORSDOF 3
