REMARK SMILES CC(C)(C)c1ccc(OCC(=O)[O-])cc1
REMARK SMILES IDX 9 1 10 2 11 3 12 4 13 5 8 6 7 7 14 8 6 9 15 10 5 11 2 12
REMARK SMILES IDX 1 13 3 14 4 15
REMARK H PARENT
ROOT
ATOM      1  O   UNL     1       3.353  -0.179  -0.114  1.00  0.00    -0.488 OA
ENDROOT
BRANCH   1   2
ATOM      2  C   UNL     1       4.238   0.511   0.764  1.00  0.00     0.282 C 
BRANCH   2   3
ATOM      3  C   UNL     1       5.646   0.215   0.373  1.00  0.00     0.079 C 
ATOM      4  O   UNL     1       6.218   0.909  -0.508  1.00  0.00    -0.546 OA
ATOM      5  O   UNL     1       6.314  -0.862   0.942  1.00  0.00    -0.546 OA
ENDBRANCH   2   3
ENDBRANCH   1   2
BRANCH   1   6
ATOM      6  C   UNL     1       1.954  -0.127  -0.032  1.00  0.00     0.119 A 
ATOM      7  C   UNL     1       1.207  -0.855  -0.960  1.00  0.00     0.047 A 
ATOM      8  C   UNL     1       1.282   0.626   0.944  1.00  0.00     0.047 A 
ATOM      9  C   UNL     1      -0.189  -0.837  -0.922  1.00  0.00     0.008 A 
ATOM     10  C   UNL     1      -0.115   0.647   0.987  1.00  0.00     0.008 A 
ATOM     11  C   UNL     1      -0.884  -0.086   0.052  1.00  0.00    -0.042 A 
BRANCH  11  12
ATOM     12  C   UNL     1      -2.427  -0.092   0.061  1.00  0.00    -0.013 C 
ATOM     13  C   UNL     1      -3.031   0.779   1.189  1.00  0.00     0.016 C 
ATOM     14  C   UNL     1      -2.935  -1.537   0.262  1.00  0.00     0.016 C 
ATOM     15  C   UNL     1      -2.952   0.453  -1.285  1.00  0.00     0.016 C 
ENDBRANCH  11  12
ENDBRANCH   1   6
TORSDOF 4
