REMARK SMILES O=C1Nc2ccccc2[C@]1(O)Cc1ccccn1
REMARK SMILES IDX 1 1 2 2 3 3 4 4 5 5 6 6 7 7 8 8 9 9 10 10 11 12 12 14 13 15
REMARK SMILES IDX 14 16 18 17 15 18 17 19 16 20
REMARK H PARENT 3 11 11 13
ROOT
ATOM      1  O   UNL     1       0.429  -2.252   0.656  1.00  0.00    -0.271 OA
ATOM      2  C   UNL     1      -0.501  -1.474   0.317  1.00  0.00     0.261 C 
ATOM      3  N   UNL     1      -1.802  -1.939  -0.022  1.00  0.00    -0.323 N 
ATOM      4  C   UNL     1      -2.554  -0.766  -0.266  1.00  0.00     0.047 A 
ATOM      5  C   UNL     1      -3.905  -0.710  -0.605  1.00  0.00     0.026 A 
ATOM      6  C   UNL     1      -4.493   0.552  -0.789  1.00  0.00     0.002 A 
ATOM      7  C   UNL     1      -3.727   1.724  -0.628  1.00  0.00     0.001 A 
ATOM      8  C   UNL     1      -2.368   1.642  -0.282  1.00  0.00     0.009 A 
ATOM      9  C   UNL     1      -1.796   0.378  -0.111  1.00  0.00     0.017 A 
ATOM     10  C   UNL     1      -0.380   0.037   0.265  1.00  0.00     0.176 C 
ATOM     11  H   UNL     1      -2.139  -2.927  -0.040  1.00  0.00     0.170 HD
ENDROOT
BRANCH  10  12
ATOM     12  O   UNL     1      -0.092   0.583   1.529  1.00  0.00    -0.375 OA
ATOM     13  H   UNL     1       0.716   0.126   1.879  1.00  0.00     0.212 HD
ENDBRANCH  10  12
BRANCH  10  14
ATOM     14  C   UNL     1       0.600   0.531  -0.824  1.00  0.00     0.106 C 
BRANCH  14  15
ATOM     15  C   UNL     1       2.030   0.150  -0.549  1.00  0.00     0.044 A 
ATOM     16  C   UNL     1       2.851   0.965   0.246  1.00  0.00     0.024 A 
ATOM     17  N   UNL     1       2.530  -1.007  -1.066  1.00  0.00    -0.261 NA
ATOM     18  C   UNL     1       4.168   0.576   0.493  1.00  0.00     0.003 A 
ATOM     19  C   UNL     1       3.811  -1.401  -0.836  1.00  0.00     0.111 A 
ATOM     20  C   UNL     1       4.655  -0.615  -0.049  1.00  0.00     0.020 A 
ENDBRANCH  14  15
ENDBRANCH  10  14
TORSDOF 3
