REMARK SMILES C=C(O)C(=Cc1ccc(O)cc1)C(=C)O
REMARK SMILES IDX 4 1 2 2 1 3 3 4 5 6 6 7 7 8 12 9 8 10 11 11 9 12 10 13 13 15
REMARK SMILES IDX 14 16 15 17
REMARK H PARENT 3 5 10 14 15 18
ROOT
ATOM      1  C   UNL     1      -1.521   0.577  -0.193  1.00  0.00     0.057 C 
ENDROOT
BRANCH   1   2
ATOM      2  C   UNL     1      -1.489  -0.829  -0.656  1.00  0.00     0.119 C 
ATOM      3  C   UNL     1      -1.918  -1.821   0.128  1.00  0.00     0.059 C 
BRANCH   2   4
ATOM      4  O   UNL     1      -0.981  -1.103  -1.925  1.00  0.00    -0.508 OA
ATOM      5  H   UNL     1      -0.926  -2.048  -2.288  1.00  0.00     0.293 HD
ENDBRANCH   2   4
ENDBRANCH   1   2
BRANCH   1   6
ATOM      6  C   UNL     1      -0.384   1.208   0.166  1.00  0.00     0.024 C 
BRANCH   6   7
ATOM      7  C   UNL     1       0.950   0.571   0.214  1.00  0.00    -0.025 A 
ATOM      8  C   UNL     1       1.176  -0.609   0.943  1.00  0.00     0.012 A 
ATOM      9  C   UNL     1       2.030   1.200  -0.423  1.00  0.00     0.012 A 
ATOM     10  C   UNL     1       2.454  -1.174   0.993  1.00  0.00     0.047 A 
ATOM     11  C   UNL     1       3.308   0.634  -0.373  1.00  0.00     0.047 A 
ATOM     12  C   UNL     1       3.523  -0.555   0.331  1.00  0.00     0.115 A 
BRANCH  12  13
ATOM     13  O   UNL     1       4.800  -1.109   0.372  1.00  0.00    -0.508 OA
ATOM     14  H   UNL     1       4.989  -1.969   0.875  1.00  0.00     0.293 HD
ENDBRANCH  12  13
ENDBRANCH   6   7
ENDBRANCH   1   6
BRANCH   1  15
ATOM     15  C   UNL     1      -2.790   1.353  -0.299  1.00  0.00     0.119 C 
ATOM     16  C   UNL     1      -3.975   0.800  -0.036  1.00  0.00     0.059 C 
BRANCH  15  17
ATOM     17  O   UNL     1      -2.773   2.691  -0.698  1.00  0.00    -0.508 OA
ATOM     18  H   UNL     1      -1.931   3.151  -1.020  1.00  0.00     0.293 HD
ENDBRANCH  15  17
ENDBRANCH   1  15
TORSDOF 7
