REMARK SMILES CC(=O)Oc1c(C)c(OC(C)=O)c2c(c1C(C)=O)O[C@@H]1CC(=O)C(=C(C)O)C(=O)[C@]21C
REMARK SMILES IDX 24 1 22 2 23 3 21 4 20 5 19 6 14 7 15 8 5 9 6 10 7 11 8 12
REMARK SMILES IDX 13 13 30 14 31 15 28 16 29 17 25 18 26 19 27 20 9 22 10 23
REMARK SMILES IDX 11 24 12 25 16 26 17 27 18 28 4 29 2 30 1 31 3 32
REMARK H PARENT 27 21
ROOT
ATOM      1  C   UNL     1      -3.198  -0.591  -0.648  1.00  0.00     0.099 C 
ATOM      2  C   UNL     1      -3.478  -1.156   0.695  1.00  0.00     0.173 C 
ATOM      3  O   UNL     1      -3.694  -2.384   0.879  1.00  0.00    -0.294 OA
ATOM      4  C   UNL     1      -3.470  -0.229   1.869  1.00  0.00     0.128 C 
ATOM      5  C   UNL     1      -2.168   0.582   1.905  1.00  0.00     0.199 C 
ATOM      6  O   UNL     1      -1.078  -0.262   2.266  1.00  0.00    -0.487 OA
ATOM      7  C   UNL     1      -0.036  -0.130   1.373  1.00  0.00     0.142 A 
ATOM      8  C   UNL     1       1.195  -0.788   1.444  1.00  0.00     0.103 A 
ATOM      9  C   UNL     1       2.143  -0.533   0.419  1.00  0.00     0.152 A 
ATOM     10  C   UNL     1       1.798   0.292  -0.682  1.00  0.00     0.036 A 
ATOM     11  C   UNL     1       2.781   0.473  -1.810  1.00  0.00     0.052 C 
ATOM     12  C   UNL     1       0.547   0.961  -0.695  1.00  0.00     0.145 A 
ATOM     13  C   UNL     1      -0.352   0.724   0.353  1.00  0.00     0.056 A 
ATOM     14  C   UNL     1      -1.755   1.241   0.530  1.00  0.00     0.101 C 
ATOM     15  C   UNL     1      -1.762   2.779   0.662  1.00  0.00     0.029 C 
ATOM     16  C   UNL     1      -2.605   0.774  -0.646  1.00  0.00     0.184 C 
ATOM     17  O   UNL     1      -2.774   1.538  -1.637  1.00  0.00    -0.293 OA
ENDROOT
BRANCH   1  18
ATOM     18  C   UNL     1      -3.458  -1.241  -1.812  1.00  0.00     0.104 C 
ATOM     19  C   UNL     1      -4.138  -2.584  -1.863  1.00  0.00     0.087 C 
BRANCH  18  20
ATOM     20  O   UNL     1      -3.068  -0.664  -3.023  1.00  0.00    -0.512 OA
ATOM     21  H   UNL     1      -3.229  -1.122  -3.912  1.00  0.00     0.293 HD
ENDBRANCH  18  20
ENDBRANCH   1  18
BRANCH  12  22
ATOM     22  O   UNL     1       0.178   1.821  -1.736  1.00  0.00    -0.426 OA
BRANCH  22  23
ATOM     23  C   UNL     1       0.865   3.002  -2.036  1.00  0.00     0.308 C 
ATOM     24  C   UNL     1       0.464   3.799  -3.229  1.00  0.00     0.139 C 
ATOM     25  O   UNL     1       1.768   3.435  -1.270  1.00  0.00    -0.252 OA
ENDBRANCH  22  23
ENDBRANCH  12  22
BRANCH   8  26
ATOM     26  C   UNL     1       1.440  -1.757   2.538  1.00  0.00     0.167 C 
ATOM     27  C   UNL     1       2.088  -3.084   2.285  1.00  0.00     0.094 C 
ATOM     28  O   UNL     1       1.070  -1.477   3.709  1.00  0.00    -0.294 OA
ENDBRANCH   8  26
BRANCH   9  29
ATOM     29  O   UNL     1       3.431  -1.081   0.474  1.00  0.00    -0.425 OA
BRANCH  29  30
ATOM     30  C   UNL     1       4.334  -0.811   1.508  1.00  0.00     0.308 C 
ATOM     31  C   UNL     1       5.647  -1.514   1.540  1.00  0.00     0.139 C 
ATOM     32  O   UNL     1       4.070   0.056   2.386  1.00  0.00    -0.252 OA
ENDBRANCH  29  30
ENDBRANCH   9  29
TORSDOF 7
