REMARK SMILES CC1=CC(=O)CC(C)(C)[C@]1(O)/C=C/C(C)=C/C(=O)[O-]
REMARK SMILES IDX 13 1 14 2 15 3 16 4 17 5 18 6 19 7 12 8 10 9 7 10 2 11 6 12
REMARK SMILES IDX 3 13 4 14 8 15 9 16 1 17 5 18 11 19
REMARK H PARENT 11 20
ROOT
ATOM      1  C   UNL     1       1.305   0.040  -0.076  1.00  0.00     0.002 C 
ENDROOT
BRANCH   1   2
ATOM      2  C   UNL     1       2.721  -0.266   0.246  1.00  0.00    -0.050 C 
ATOM      3  C   UNL     1       3.050  -1.354   1.242  1.00  0.00     0.044 C 
BRANCH   2   4
ATOM      4  C   UNL     1       3.677   0.471  -0.357  1.00  0.00     0.028 C 
BRANCH   4   5
ATOM      5  C   UNL     1       5.138   0.281  -0.230  1.00  0.00     0.064 C 
ATOM      6  O   UNL     1       5.633  -0.755   0.285  1.00  0.00    -0.545 OA
ATOM      7  O   UNL     1       5.989   1.255  -0.737  1.00  0.00    -0.545 OA
ENDBRANCH   4   5
ENDBRANCH   2   4
ENDBRANCH   1   2
BRANCH   1   8
ATOM      8  C   UNL     1       0.335  -0.888  -0.050  1.00  0.00     0.013 C 
BRANCH   8   9
ATOM      9  C   UNL     1      -1.133  -0.601  -0.369  1.00  0.00     0.110 C 
ATOM     10  C   UNL     1      -1.885   0.120   0.834  1.00  0.00     0.008 C 
ATOM     11  C   UNL     1      -1.202   0.228  -1.658  1.00  0.00    -0.034 C 
ATOM     12  C   UNL     1      -1.469   1.612   0.933  1.00  0.00     0.090 C 
ATOM     13  C   UNL     1      -1.396   1.557  -1.642  1.00  0.00     0.049 C 
ATOM     14  C   UNL     1      -1.573   2.304  -0.391  1.00  0.00     0.156 C 
ATOM     15  C   UNL     1      -3.422   0.050   0.623  1.00  0.00     0.015 C 
ATOM     16  C   UNL     1      -1.574  -0.550   2.197  1.00  0.00     0.015 C 
ATOM     17  C   UNL     1      -0.935  -0.430  -2.987  1.00  0.00     0.043 C 
ATOM     18  O   UNL     1      -1.761   3.549  -0.432  1.00  0.00    -0.295 OA
BRANCH   9  19
ATOM     19  O   UNL     1      -1.776  -1.829  -0.644  1.00  0.00    -0.381 OA
ATOM     20  H   UNL     1      -1.659  -2.436   0.131  1.00  0.00     0.212 HD
ENDBRANCH   9  19
ENDBRANCH   8   9
ENDBRANCH   1   8
TORSDOF 6
