REMARK SMILES COc1cc(CCC(=O)[O-])on1
REMARK SMILES IDX 6 1 7 2 8 3 9 4 10 5 5 6 4 7 11 8 3 9 12 10 2 11 1 12
REMARK H PARENT
ROOT
ATOM      1  C   UNL     1      -1.628  -1.334  -0.833  1.00  0.00     0.084 C 
ENDROOT
BRANCH   1   2
ATOM      2  C   UNL     1      -2.700  -0.255  -1.019  1.00  0.00     0.061 C 
BRANCH   2   3
ATOM      3  C   UNL     1      -2.244   0.821  -1.956  1.00  0.00     0.042 C 
ATOM      4  O   UNL     1      -2.315   0.648  -3.202  1.00  0.00    -0.550 OA
ATOM      5  O   UNL     1      -1.700   1.996  -1.454  1.00  0.00    -0.550 OA
ENDBRANCH   2   3
ENDBRANCH   1   2
BRANCH   1   6
ATOM      6  C   UNL     1      -0.431  -0.799  -0.108  1.00  0.00     0.141 A 
ATOM      7  C   UNL     1       0.748  -0.370  -0.681  1.00  0.00     0.117 A 
ATOM      8  O   UNL     1      -0.362  -0.636   1.194  1.00  0.00    -0.358 OA
ATOM      9  C   UNL     1       1.486   0.042   0.404  1.00  0.00     0.254 A 
ATOM     10  N   UNL     1       0.786  -0.131   1.543  1.00  0.00    -0.041 NA
BRANCH   9  11
ATOM     11  O   UNL     1       2.777   0.569   0.339  1.00  0.00    -0.479 OA
ATOM     12  C   UNL     1       3.487   0.981   1.500  1.00  0.00     0.280 C 
ENDBRANCH   9  11
ENDBRANCH   1   6
TORSDOF 4
