REMARK SMILES CC(C)=CCC1=C(OCC(=O)[O-])C(=O)c2ccccc2C1=O
REMARK SMILES IDX 7 1 6 2 13 3 21 4 14 5 15 6 20 7 22 8 16 9 19 10 17 11 18 12
REMARK SMILES IDX 8 13 9 14 10 15 11 16 12 17 5 18 4 19 2 20 1 21 3 22
REMARK H PARENT
ROOT
ATOM      1  C   UNL     1      -0.944   0.952  -0.406  1.00  0.00     0.175 C 
ATOM      2  C   UNL     1      -0.148  -0.072  -0.794  1.00  0.00     0.050 C 
ATOM      3  C   UNL     1      -2.250   0.667   0.265  1.00  0.00     0.228 C 
ATOM      4  C   UNL     1      -0.530  -1.480  -0.508  1.00  0.00     0.193 C 
ATOM      5  O   UNL     1      -3.019   1.608   0.597  1.00  0.00    -0.285 OA
ATOM      6  C   UNL     1      -2.658  -0.729   0.541  1.00  0.00     0.037 A 
ATOM      7  C   UNL     1      -1.811  -1.785   0.162  1.00  0.00     0.034 A 
ATOM      8  O   UNL     1       0.247  -2.419  -0.833  1.00  0.00    -0.289 OA
ATOM      9  C   UNL     1      -3.880  -1.014   1.179  1.00  0.00     0.013 A 
ATOM     10  C   UNL     1      -2.193  -3.113   0.425  1.00  0.00     0.013 A 
ATOM     11  C   UNL     1      -4.250  -2.337   1.435  1.00  0.00     0.001 A 
ATOM     12  C   UNL     1      -3.408  -3.384   1.059  1.00  0.00     0.001 A 
ENDROOT
BRANCH   1  13
ATOM     13  O   UNL     1      -0.494   2.264  -0.653  1.00  0.00    -0.483 OA
BRANCH  13  14
ATOM     14  C   UNL     1      -1.154   3.467  -0.276  1.00  0.00     0.282 C 
BRANCH  14  15
ATOM     15  C   UNL     1      -0.308   4.629  -0.674  1.00  0.00     0.079 C 
ATOM     16  O   UNL     1      -0.424   5.133  -1.823  1.00  0.00    -0.546 OA
ATOM     17  O   UNL     1       0.651   5.123   0.200  1.00  0.00    -0.546 OA
ENDBRANCH  14  15
ENDBRANCH  13  14
ENDBRANCH   1  13
BRANCH   2  18
ATOM     18  C   UNL     1       1.185   0.202  -1.459  1.00  0.00     0.071 C 
BRANCH  18  19
ATOM     19  C   UNL     1       2.244   0.434  -0.408  1.00  0.00    -0.023 C 
BRANCH  19  20
ATOM     20  C   UNL     1       3.406  -0.249  -0.313  1.00  0.00    -0.080 C 
ATOM     21  C   UNL     1       3.771  -1.354  -1.276  1.00  0.00     0.039 C 
ATOM     22  C   UNL     1       4.364   0.116   0.792  1.00  0.00     0.039 C 
ENDBRANCH  19  20
ENDBRANCH  18  19
ENDBRANCH   2  18
TORSDOF 6
