REMARK SMILES COc1ccc([N+](=O)[O-])cc1NS(=O)(=O)c1ccc(C)cc1
REMARK SMILES IDX 12 1 11 3 3 4 4 5 5 6 10 7 6 8 2 9 1 10 7 11 8 12 9 13 13 14
REMARK SMILES IDX 14 15 15 16 16 17 17 18 22 19 18 20 21 21 19 22 20 23
REMARK H PARENT 12 2
ROOT
ATOM      1  N   UNL     1      -0.815  -1.782  -1.565  1.00  0.00    -0.276 N 
ATOM      2  H   UNL     1      -1.029  -1.897  -2.580  1.00  0.00     0.180 HD
ENDROOT
BRANCH   1   3
ATOM      3  C   UNL     1      -1.531  -0.799  -0.792  1.00  0.00     0.098 A 
ATOM      4  C   UNL     1      -2.283   0.194  -1.451  1.00  0.00     0.143 A 
ATOM      5  C   UNL     1      -2.975   1.155  -0.692  1.00  0.00     0.056 A 
ATOM      6  C   UNL     1      -2.921   1.134   0.702  1.00  0.00     0.089 A 
ATOM      7  C   UNL     1      -1.496  -0.819   0.616  1.00  0.00     0.116 A 
ATOM      8  C   UNL     1      -2.182   0.148   1.371  1.00  0.00     0.271 A 
BRANCH   4   9
ATOM      9  O   UNL     1      -2.314   0.202  -2.855  1.00  0.00    -0.495 OA
ATOM     10  C   UNL     1      -3.026   1.149  -3.644  1.00  0.00     0.278 C 
ENDBRANCH   4   9
BRANCH   8  11
ATOM     11  N   UNL     1      -2.130   0.129   2.810  1.00  0.00     0.062 N 
ATOM     12  O   UNL     1      -1.456  -0.732   3.413  1.00  0.00    -0.258 OA
ATOM     13  O   UNL     1      -2.818   1.067   3.547  1.00  0.00    -0.258 OA
ENDBRANCH   8  11
ENDBRANCH   1   3
BRANCH   1  14
ATOM     14  S   UNL     1       0.537  -2.682  -0.953  1.00  0.00     0.262 S 
ATOM     15  O   UNL     1       0.035  -3.770  -0.046  1.00  0.00    -0.201 OA
ATOM     16  O   UNL     1       1.281  -3.305  -2.100  1.00  0.00    -0.201 OA
BRANCH  14  17
ATOM     17  C   UNL     1       1.632  -1.605  -0.091  1.00  0.00     0.087 A 
ATOM     18  C   UNL     1       2.181  -1.983   1.142  1.00  0.00     0.022 A 
ATOM     19  C   UNL     1       1.950  -0.354  -0.635  1.00  0.00     0.022 A 
ATOM     20  C   UNL     1       3.031  -1.111   1.830  1.00  0.00     0.005 A 
ATOM     21  C   UNL     1       2.799   0.518   0.051  1.00  0.00     0.005 A 
ATOM     22  C   UNL     1       3.332   0.152   1.296  1.00  0.00    -0.051 A 
ATOM     23  C   UNL     1       4.273   1.072   2.017  1.00  0.00     0.044 C 
ENDBRANCH  14  17
ENDBRANCH   1  14
TORSDOF 5
