REMARK SMILES Cc1ccccc1NC(=O)Oc1cccc(OC(=O)c2ccccc2)c1
REMARK SMILES IDX 12 1 13 2 14 3 15 4 16 5 26 6 11 7 9 8 8 9 10 11 7 12 2 13
REMARK SMILES IDX 3 14 4 15 6 16 5 17 1 18 17 19 18 20 19 21 20 22 21 23 25 24
REMARK SMILES IDX 22 25 24 26 23 27
REMARK H PARENT 8 10
ROOT
ATOM      1  C   UNL     1      -0.056   0.968  -0.576  1.00  0.00     0.136 A 
ATOM      2  C   UNL     1      -0.307   1.939  -1.562  1.00  0.00     0.047 A 
ATOM      3  C   UNL     1       0.755   2.535  -2.247  1.00  0.00     0.008 A 
ATOM      4  C   UNL     1       2.072   2.184  -1.942  1.00  0.00     0.047 A 
ATOM      5  C   UNL     1       2.341   1.252  -0.934  1.00  0.00     0.134 A 
ATOM      6  C   UNL     1       1.269   0.638  -0.259  1.00  0.00     0.094 A 
ENDROOT
BRANCH   1   7
ATOM      7  O   UNL     1      -1.088   0.337   0.135  1.00  0.00    -0.410 OA
BRANCH   7   8
ATOM      8  C   UNL     1      -2.375   0.083  -0.357  1.00  0.00     0.417 C 
ATOM      9  N   UNL     1      -3.413  -0.271   0.567  1.00  0.00    -0.291 N 
ATOM     10  H   UNL     1      -3.214  -0.136   1.583  1.00  0.00     0.173 HD
ATOM     11  O   UNL     1      -2.615   0.145  -1.594  1.00  0.00    -0.224 OA
BRANCH   9  12
ATOM     12  C   UNL     1      -4.723  -0.710   0.166  1.00  0.00     0.047 A 
ATOM     13  C   UNL     1      -5.874  -0.265   0.858  1.00  0.00    -0.027 A 
ATOM     14  C   UNL     1      -7.139  -0.746   0.479  1.00  0.00     0.005 A 
ATOM     15  C   UNL     1      -7.266  -1.650  -0.577  1.00  0.00     0.000 A 
ATOM     16  C   UNL     1      -4.868  -1.633  -0.887  1.00  0.00     0.026 A 
ATOM     17  C   UNL     1      -6.133  -2.093  -1.258  1.00  0.00     0.002 A 
ATOM     18  C   UNL     1      -5.764   0.707   2.002  1.00  0.00     0.046 C 
ENDBRANCH   9  12
ENDBRANCH   7   8
ENDBRANCH   1   7
BRANCH   5  19
ATOM     19  O   UNL     1       3.680   0.931  -0.662  1.00  0.00    -0.423 OA
BRANCH  19  20
ATOM     20  C   UNL     1       4.177   0.504   0.578  1.00  0.00     0.343 C 
ATOM     21  O   UNL     1       3.505   0.684   1.631  1.00  0.00    -0.246 OA
BRANCH  20  22
ATOM     22  C   UNL     1       5.523  -0.106   0.656  1.00  0.00     0.060 A 
ATOM     23  C   UNL     1       6.290  -0.285  -0.510  1.00  0.00     0.015 A 
ATOM     24  C   UNL     1       6.055  -0.519   1.892  1.00  0.00     0.015 A 
ATOM     25  C   UNL     1       7.561  -0.864  -0.439  1.00  0.00     0.001 A 
ATOM     26  C   UNL     1       7.327  -1.096   1.957  1.00  0.00     0.001 A 
ATOM     27  C   UNL     1       8.079  -1.268   0.793  1.00  0.00     0.000 A 
ENDBRANCH  20  22
ENDBRANCH  19  20
ENDBRANCH   5  19
TORSDOF 6
