REMARK SMILES Cc1ccc(C)c([C@H]2NC(=O)c3ccccc3N2)c1
REMARK SMILES IDX 8 1 9 2 10 3 11 4 12 5 13 6 14 7 15 8 16 9 17 10 18 11 7 14
REMARK SMILES IDX 2 15 3 16 19 17 4 18 5 19 1 20 6 21
REMARK H PARENT 9 12 18 13
ROOT
ATOM      1  C   UNL     1       0.176  -0.790   0.566  1.00  0.00     0.208 C 
ATOM      2  N   UNL     1       0.852  -1.492  -0.530  1.00  0.00    -0.328 N 
ATOM      3  C   UNL     1       2.229  -1.264  -0.843  1.00  0.00     0.255 C 
ATOM      4  O   UNL     1       2.822  -2.037  -1.644  1.00  0.00    -0.269 OA
ATOM      5  C   UNL     1       2.931  -0.120  -0.243  1.00  0.00     0.063 A 
ATOM      6  C   UNL     1       4.288   0.133  -0.506  1.00  0.00     0.016 A 
ATOM      7  C   UNL     1       4.916   1.246   0.060  1.00  0.00     0.001 A 
ATOM      8  C   UNL     1       4.195   2.112   0.886  1.00  0.00     0.002 A 
ATOM      9  C   UNL     1       2.845   1.865   1.150  1.00  0.00     0.026 A 
ATOM     10  C   UNL     1       2.209   0.746   0.593  1.00  0.00     0.049 A 
ATOM     11  N   UNL     1       0.822   0.496   0.864  1.00  0.00    -0.361 N 
ATOM     12  H   UNL     1       0.375  -2.314  -0.966  1.00  0.00     0.166 HD
ATOM     13  H   UNL     1       0.303   1.172   1.470  1.00  0.00     0.163 HD
ENDROOT
BRANCH   1  14
ATOM     14  C   UNL     1      -1.277  -0.556   0.192  1.00  0.00    -0.002 A 
ATOM     15  C   UNL     1      -2.872   0.550  -1.296  1.00  0.00    -0.051 A 
ATOM     16  C   UNL     1      -3.929  -0.046  -0.600  1.00  0.00     0.004 A 
ATOM     17  C   UNL     1      -1.555   0.303  -0.888  1.00  0.00     0.011 A 
ATOM     18  C   UNL     1      -3.674  -0.908   0.466  1.00  0.00     0.004 A 
ATOM     19  C   UNL     1      -2.356  -1.182   0.871  1.00  0.00    -0.044 A 
ATOM     20  C   UNL     1      -3.149   1.502  -2.421  1.00  0.00     0.044 C 
ATOM     21  C   UNL     1      -2.134  -2.127   2.022  1.00  0.00     0.045 C 
ENDBRANCH   1  14
TORSDOF 1
