REMARK SMILES O=[N+]([O-])c1ccc([C@@H]2CC(c3ccccc3)=Nc3ccccc3S2)cc1
REMARK SMILES IDX 24 1 8 2 7 4 4 5 5 6 26 7 6 8 25 9 2 10 1 11 3 12 23 13
REMARK SMILES IDX 22 14 18 15 21 16 19 17 20 18 17 19 10 20 9 21 11 23 12 24
REMARK SMILES IDX 16 25 13 26 15 27 14 28
REMARK H PARENT
REMARK Flexibility Score:   84.900
ROOT
ATOM      1  S   UNL     1      -0.083   2.187  -1.257  1.00  0.00    -0.115 SA
ENDROOT
BRANCH   1   2
ATOM      2  C   UNL     1       0.712   1.425   0.218  1.00  0.00     0.088 CG0
ATOM      3  G   UNL     1      -0.260   0.665   1.153  1.00  0.00     0.000 G0
BRANCH   2   4
ATOM      4  C   UNL     1       1.846   0.517  -0.215  1.00  0.00    -0.034 A 
ATOM      5  C   UNL     1       3.939  -1.250  -0.912  1.00  0.00     0.269 A 
ATOM      6  C   UNL     1       4.127  -0.279   0.085  1.00  0.00     0.086 A 
ATOM      7  C   UNL     1       2.691  -1.333  -1.554  1.00  0.00     0.086 A 
ATOM      8  C   UNL     1       3.090   0.591   0.434  1.00  0.00     0.012 A 
ATOM      9  C   UNL     1       1.656  -0.462  -1.206  1.00  0.00     0.012 A 
BRANCH   5  10
ATOM     10  N   UNL     1       5.008  -2.147  -1.266  1.00  0.00     0.062 N 
ATOM     11  O   UNL     1       4.846  -3.015  -2.149  1.00  0.00    -0.258 OA
ATOM     12  O   UNL     1       6.229  -2.063  -0.636  1.00  0.00    -0.258 OA
ENDBRANCH   5  10
ENDBRANCH   2   4
ENDBRANCH   1   2
BRANCH   1  13
ATOM     13  C   UNL     1      -1.522   2.851  -0.408  1.00  0.00     0.034 A 
ATOM     14  C   UNL     1      -1.653   4.234  -0.242  1.00  0.00     0.017 A 
ATOM     15  C   UNL     1      -2.560   1.992   0.002  1.00  0.00     0.077 A 
ATOM     16  C   UNL     1      -2.829   4.766   0.295  1.00  0.00     0.001 A 
ATOM     17  C   UNL     1      -3.748   2.534   0.509  1.00  0.00     0.029 A 
ATOM     18  C   UNL     1      -3.880   3.918   0.658  1.00  0.00     0.002 A 
BRANCH  15  19
ATOM     19  N   UNL     1      -2.400   0.567  -0.052  1.00  0.00    -0.252 NA
BRANCH  19  20
ATOM     20  C   UNL     1      -1.363  -0.078   0.412  1.00  0.00     0.050 C 
BRANCH  20  21
ATOM     21  C   UNL     1      -0.260   0.665   1.153  1.00  0.00     0.076 CG0
ATOM     22  G   UNL     1       0.712   1.425   0.218  1.00  0.00     0.000 G0
ENDBRANCH  20  21
BRANCH  20  23
ATOM     23  C   UNL     1      -1.277  -1.541   0.176  1.00  0.00    -0.004 A 
ATOM     24  C   UNL     1      -0.757  -2.416   1.149  1.00  0.00     0.010 A 
ATOM     25  C   UNL     1      -1.725  -2.075  -1.047  1.00  0.00     0.010 A 
ATOM     26  C   UNL     1      -0.665  -3.787   0.891  1.00  0.00     0.001 A 
ATOM     27  C   UNL     1      -1.630  -3.447  -1.300  1.00  0.00     0.001 A 
ATOM     28  C   UNL     1      -1.097  -4.301  -0.333  1.00  0.00     0.000 A 
ENDBRANCH  20  23
ENDBRANCH  19  20
ENDBRANCH  15  19
ENDBRANCH   1  13
TORSDOF 3
