REMARK SMILES CSc1nc2cc(S(=O)(=O)N3CCCCC3)ccc2s1
REMARK SMILES IDX 3 1 4 2 5 3 6 4 7 5 17 6 18 7 19 8 20 9 2 10 1 11 8 12 9 13
REMARK SMILES IDX 10 14 11 15 12 16 16 17 13 18 15 19 14 20
REMARK H PARENT
ROOT
ATOM      1  C   UNL     1       4.683   0.491   1.065  1.00  0.00     0.150 A 
ATOM      2  N   UNL     1       3.701  -0.433   0.940  1.00  0.00    -0.230 NA
ATOM      3  C   UNL     1       2.649   0.075   0.248  1.00  0.00     0.084 A 
ATOM      4  C   UNL     1       1.482  -0.632  -0.044  1.00  0.00     0.051 A 
ATOM      5  C   UNL     1       0.461   0.010  -0.772  1.00  0.00     0.084 A 
ATOM      6  C   UNL     1       0.624   1.352  -1.184  1.00  0.00     0.023 A 
ATOM      7  C   UNL     1       1.802   2.052  -0.883  1.00  0.00     0.023 A 
ATOM      8  C   UNL     1       2.795   1.388  -0.168  1.00  0.00     0.056 A 
ATOM      9  S   UNL     1       4.290   1.965   0.333  1.00  0.00    -0.108 S 
ENDROOT
BRANCH   1  10
ATOM     10  S   UNL     1       6.223   0.174   1.919  1.00  0.00    -0.099 SA
ATOM     11  C   UNL     1       7.059  -0.434   0.422  1.00  0.00     0.093 C 
ENDBRANCH   1  10
BRANCH   5  12
ATOM     12  S   UNL     1      -1.029  -0.858  -1.129  1.00  0.00     0.243 S 
ATOM     13  O   UNL     1      -0.670  -2.240  -1.601  1.00  0.00    -0.207 OA
ATOM     14  O   UNL     1      -1.766  -0.158  -2.236  1.00  0.00    -0.207 OA
BRANCH  12  15
ATOM     15  N   UNL     1      -2.011  -0.970   0.317  1.00  0.00    -0.198 NA
ATOM     16  C   UNL     1      -2.313   0.344   0.919  1.00  0.00     0.102 C 
ATOM     17  C   UNL     1      -3.207  -1.816   0.135  1.00  0.00     0.102 C 
ATOM     18  C   UNL     1      -3.428   1.101   0.183  1.00  0.00     0.017 C 
ATOM     19  C   UNL     1      -4.344  -1.101  -0.610  1.00  0.00     0.017 C 
ATOM     20  C   UNL     1      -4.679   0.233   0.055  1.00  0.00     0.003 C 
ENDBRANCH  12  15
ENDBRANCH   5  12
TORSDOF 3
