REMARK SMILES CC(=O)Oc1c(C)c(OC(C)=O)c2c(c1C(C)=O)O[C@@H]1CC(O)=C(C(C)=O)C(=O)[C@]21C
REMARK SMILES IDX 22 1 24 2 28 3 29 4 30 5 31 6 13 7 8 8 6 9 7 10 5 11 15 12
REMARK SMILES IDX 14 13 19 14 20 15 21 16 23 17 25 19 26 20 27 21 9 22 10 23
REMARK SMILES IDX 11 24 12 25 16 26 17 27 18 28 4 29 2 30 1 31 3 32
REMARK H PARENT 23 18
ROOT
ATOM      1  C   UNL     1       3.531  -1.646   0.637  1.00  0.00     0.110 C 
ATOM      2  C   UNL     1       3.294  -0.344   0.863  1.00  0.00     0.099 C 
ATOM      3  C   UNL     1       2.499   0.453  -0.095  1.00  0.00     0.184 C 
ATOM      4  O   UNL     1       2.568   1.712  -0.056  1.00  0.00    -0.293 OA
ATOM      5  C   UNL     1       1.592  -0.212  -1.122  1.00  0.00     0.101 C 
ATOM      6  C   UNL     1       1.825   0.375  -2.523  1.00  0.00     0.029 C 
ATOM      7  C   UNL     1       0.155  -0.095  -0.660  1.00  0.00     0.056 A 
ATOM      8  C   UNL     1      -0.622   1.063  -0.473  1.00  0.00     0.145 A 
ATOM      9  C   UNL     1      -1.917   0.925   0.084  1.00  0.00     0.036 A 
ATOM     10  C   UNL     1      -2.687   2.172   0.451  1.00  0.00     0.052 C 
ATOM     11  C   UNL     1      -2.367  -0.356   0.516  1.00  0.00     0.152 A 
ATOM     12  C   UNL     1      -1.526  -1.494   0.389  1.00  0.00     0.103 A 
ATOM     13  C   UNL     1      -0.274  -1.315  -0.203  1.00  0.00     0.142 A 
ATOM     14  O   UNL     1       0.692  -2.289  -0.383  1.00  0.00    -0.487 OA
ATOM     15  C   UNL     1       1.764  -1.770  -1.157  1.00  0.00     0.199 C 
ATOM     16  C   UNL     1       3.126  -2.268  -0.666  1.00  0.00     0.122 C 
ENDROOT
BRANCH   1  17
ATOM     17  O   UNL     1       4.231  -2.436   1.558  1.00  0.00    -0.511 OA
ATOM     18  H   UNL     1       4.423  -2.132   2.511  1.00  0.00     0.293 HD
ENDBRANCH   1  17
BRANCH   2  19
ATOM     19  C   UNL     1       3.891   0.346   2.019  1.00  0.00     0.166 C 
ATOM     20  C   UNL     1       5.328   0.763   1.979  1.00  0.00     0.094 C 
ATOM     21  O   UNL     1       3.189   0.596   3.036  1.00  0.00    -0.294 OA
ENDBRANCH   2  19
BRANCH   8  22
ATOM     22  O   UNL     1      -0.051   2.321  -0.688  1.00  0.00    -0.426 OA
BRANCH  22  23
ATOM     23  C   UNL     1      -0.324   3.125  -1.807  1.00  0.00     0.308 C 
ATOM     24  C   UNL     1       0.344   4.452  -1.910  1.00  0.00     0.139 C 
ATOM     25  O   UNL     1      -1.045   2.719  -2.763  1.00  0.00    -0.252 OA
ENDBRANCH  22  23
ENDBRANCH   8  22
BRANCH  12  26
ATOM     26  C   UNL     1      -1.901  -2.829   0.921  1.00  0.00     0.167 C 
ATOM     27  C   UNL     1      -3.312  -3.340   0.883  1.00  0.00     0.094 C 
ATOM     28  O   UNL     1      -1.019  -3.554   1.453  1.00  0.00    -0.294 OA
ENDBRANCH  12  26
BRANCH  11  29
ATOM     29  O   UNL     1      -3.622  -0.494   1.117  1.00  0.00    -0.425 OA
BRANCH  29  30
ATOM     30  C   UNL     1      -4.815  -0.356   0.404  1.00  0.00     0.308 C 
ATOM     31  C   UNL     1      -6.117  -0.485   1.118  1.00  0.00     0.139 C 
ATOM     32  O   UNL     1      -4.803  -0.130  -0.839  1.00  0.00    -0.252 OA
ENDBRANCH  29  30
ENDBRANCH  11  29
TORSDOF 7
