REMARK SMILES CC(=O)Oc1c(C)c(OC(C)=O)c2c(c1C(C)=O)O[C@@H]1CC(=O)[C@H](C(C)=O)C(=O)[C@@]21C
REMARK SMILES IDX 24 1 22 2 23 3 21 4 20 5 19 6 14 7 15 8 5 9 6 10 7 11 8 12
REMARK SMILES IDX 13 13 30 14 31 15 28 16 29 17 25 18 26 19 27 20 9 21 10 22
REMARK SMILES IDX 11 23 12 24 16 25 17 26 18 27 4 28 2 29 1 30 3 31
REMARK H PARENT
ROOT
ATOM      1  C   UNL     1      -3.598   0.233   1.585  1.00  0.00     0.190 C 
ATOM      2  C   UNL     1      -3.796  -1.298   1.592  1.00  0.00     0.154 C 
ATOM      3  O   UNL     1      -4.894  -1.758   1.873  1.00  0.00    -0.298 OA
ATOM      4  C   UNL     1      -2.646  -2.273   1.352  1.00  0.00     0.123 C 
ATOM      5  C   UNL     1      -1.359  -1.471   1.212  1.00  0.00     0.198 C 
ATOM      6  O   UNL     1      -0.165  -2.160   0.885  1.00  0.00    -0.487 OA
ATOM      7  C   UNL     1       0.684  -1.222   0.308  1.00  0.00     0.142 A 
ATOM      8  C   UNL     1       2.054  -1.373   0.064  1.00  0.00     0.103 A 
ATOM      9  C   UNL     1       2.730  -0.302  -0.581  1.00  0.00     0.152 A 
ATOM     10  C   UNL     1       2.008   0.831  -1.042  1.00  0.00     0.036 A 
ATOM     11  C   UNL     1       2.728   1.893  -1.836  1.00  0.00     0.052 C 
ATOM     12  C   UNL     1       0.624   0.955  -0.752  1.00  0.00     0.145 A 
ATOM     13  C   UNL     1      -0.003  -0.072  -0.039  1.00  0.00     0.055 A 
ATOM     14  C   UNL     1      -1.472  -0.344   0.164  1.00  0.00     0.097 C 
ATOM     15  C   UNL     1      -2.052  -0.803  -1.196  1.00  0.00     0.029 C 
ATOM     16  C   UNL     1      -2.374   0.695   0.790  1.00  0.00     0.165 C 
ATOM     17  O   UNL     1      -2.127   1.887   0.686  1.00  0.00    -0.297 OA
ENDROOT
BRANCH   1  18
ATOM     18  C   UNL     1      -4.830   0.974   1.111  1.00  0.00     0.147 C 
ATOM     19  C   UNL     1      -5.556   0.605  -0.153  1.00  0.00     0.089 C 
ATOM     20  O   UNL     1      -5.205   1.959   1.735  1.00  0.00    -0.299 OA
ENDBRANCH   1  18
BRANCH  12  21
ATOM     21  O   UNL     1      -0.132   2.043  -1.203  1.00  0.00    -0.426 OA
BRANCH  21  22
ATOM     22  C   UNL     1       0.120   3.367  -0.822  1.00  0.00     0.308 C 
ATOM     23  C   UNL     1      -0.641   4.471  -1.475  1.00  0.00     0.139 C 
ATOM     24  O   UNL     1       0.931   3.629   0.108  1.00  0.00    -0.252 OA
ENDBRANCH  21  22
ENDBRANCH  12  21
BRANCH   8  25
ATOM     25  C   UNL     1       2.751  -2.638   0.408  1.00  0.00     0.167 C 
ATOM     26  C   UNL     1       2.371  -3.445   1.612  1.00  0.00     0.094 C 
ATOM     27  O   UNL     1       3.662  -3.072  -0.348  1.00  0.00    -0.294 OA
ENDBRANCH   8  25
BRANCH   9  28
ATOM     28  O   UNL     1       4.116  -0.344  -0.789  1.00  0.00    -0.425 OA
BRANCH  28  29
ATOM     29  C   UNL     1       5.046  -0.445   0.254  1.00  0.00     0.308 C 
ATOM     30  C   UNL     1       6.496  -0.569  -0.066  1.00  0.00     0.139 C 
ATOM     31  O   UNL     1       4.676  -0.391   1.460  1.00  0.00    -0.252 OA
ENDBRANCH  28  29
ENDBRANCH   9  28
TORSDOF 6
