REMARK SMILES Nc1ccnn1-c1ccccc1
REMARK SMILES IDX 2 1 3 2 4 3 5 4 6 5 1 6 7 9 8 10 12 11 9 12 11 13 10 14
REMARK H PARENT 1 7 1 8
ROOT
ATOM      1  C   UNL     1      -1.918   0.377  -0.296  1.00  0.00     0.127 A 
ATOM      2  C   UNL     1      -3.112  -0.285  -0.472  1.00  0.00     0.068 A 
ATOM      3  C   UNL     1      -2.764  -1.622  -0.423  1.00  0.00     0.138 A 
ATOM      4  N   UNL     1      -1.434  -1.742  -0.228  1.00  0.00    -0.175 NA
ATOM      5  N   UNL     1      -0.921  -0.523  -0.158  1.00  0.00    -0.218 N 
ENDROOT
BRANCH   1   6
ATOM      6  N   UNL     1      -1.783   1.792  -0.146  1.00  0.00    -0.384 N 
ATOM      7  H   UNL     1      -2.612   2.413  -0.282  1.00  0.00     0.158 HD
ATOM      8  H   UNL     1      -0.890   2.222   0.179  1.00  0.00     0.158 HD
ENDBRANCH   1   6
BRANCH   5   9
ATOM      9  C   UNL     1       0.481  -0.270   0.029  1.00  0.00     0.067 A 
ATOM     10  C   UNL     1       1.147   0.701  -0.739  1.00  0.00     0.028 A 
ATOM     11  C   UNL     1       1.215  -1.043   0.943  1.00  0.00     0.028 A 
ATOM     12  C   UNL     1       2.517   0.918  -0.567  1.00  0.00     0.002 A 
ATOM     13  C   UNL     1       2.586  -0.824   1.113  1.00  0.00     0.002 A 
ATOM     14  C   UNL     1       3.236   0.159   0.361  1.00  0.00     0.000 A 
ENDBRANCH   5   9
TORSDOF 2
