REMARK SMILES C[C@H](Cc1ccccc1)NC(N)=O
REMARK SMILES IDX 1 1 2 2 3 3 4 4 5 5 9 6 6 7 8 8 7 9 10 10 11 11 12 12 13 14
REMARK H PARENT 10 13 12 15 12 16
ROOT
ATOM      1  C   UNL     1       0.316  -2.388  -0.541  1.00  0.00     0.031 C 
ATOM      2  C   UNL     1       1.073  -1.402   0.359  1.00  0.00     0.085 C 
ENDROOT
BRANCH   2   3
ATOM      3  C   UNL     1       0.164  -0.812   1.460  1.00  0.00     0.060 C 
BRANCH   3   4
ATOM      4  C   UNL     1      -0.949   0.050   0.912  1.00  0.00    -0.046 A 
ATOM      5  C   UNL     1      -2.212  -0.505   0.647  1.00  0.00     0.004 A 
ATOM      6  C   UNL     1      -0.726   1.411   0.644  1.00  0.00     0.004 A 
ATOM      7  C   UNL     1      -3.235   0.291   0.121  1.00  0.00     0.000 A 
ATOM      8  C   UNL     1      -1.752   2.203   0.118  1.00  0.00     0.000 A 
ATOM      9  C   UNL     1      -3.005   1.643  -0.143  1.00  0.00     0.000 A 
ENDBRANCH   3   4
ENDBRANCH   2   3
BRANCH   2  10
ATOM     10  N   UNL     1       1.682  -0.338  -0.446  1.00  0.00    -0.336 N 
ATOM     11  C   UNL     1       2.764   0.470   0.038  1.00  0.00     0.312 C 
ATOM     12  N   UNL     1       3.283   1.525  -0.769  1.00  0.00    -0.352 N 
ATOM     13  H   UNL     1       1.331  -0.161  -1.415  1.00  0.00     0.165 HD
ATOM     14  O   UNL     1       3.262   0.256   1.176  1.00  0.00    -0.249 OA
ATOM     15  H   UNL     1       2.879   1.720  -1.712  1.00  0.00     0.161 HD
ATOM     16  H   UNL     1       4.071   2.116  -0.423  1.00  0.00     0.161 HD
ENDBRANCH   2  10
TORSDOF 3
