REMARK SMILES C[NH+]1CCN(C(=O)Nc2cccc(-c3ccccc3)c2)CC1
REMARK SMILES IDX 1 1 2 2 3 3 22 4 4 5 5 6 6 7 21 8 7 9 8 10 9 13 10 14 20 15
REMARK SMILES IDX 11 16 13 17 12 18 14 19 15 20 19 21 16 22 18 23 17 24
REMARK H PARENT 2 11 8 12
ROOT
ATOM      1  C   UNL     1       6.593   1.136  -0.335  1.00  0.00     0.332 C 
ATOM      2  N   UNL     1       5.314   0.412  -0.417  1.00  0.00    -0.334 N 
ATOM      3  C   UNL     1       4.213   1.357  -0.697  1.00  0.00     0.283 C 
ATOM      4  C   UNL     1       5.061  -0.315   0.844  1.00  0.00     0.283 C 
ATOM      5  C   UNL     1       2.874   0.623  -0.831  1.00  0.00     0.183 C 
ATOM      6  N   UNL     1       2.653  -0.261   0.320  1.00  0.00    -0.313 N 
ATOM      7  C   UNL     1       1.319  -0.547   0.785  1.00  0.00     0.322 C 
ATOM      8  C   UNL     1       3.760  -1.119   0.759  1.00  0.00     0.183 C 
ATOM      9  O   UNL     1       1.143  -0.851   1.996  1.00  0.00    -0.248 OA
ATOM     10  N   UNL     1       0.192  -0.473  -0.108  1.00  0.00    -0.308 N 
ATOM     11  H   UNL     1       5.385  -0.277  -1.204  1.00  0.00     0.347 HD
ATOM     12  H   UNL     1       0.327  -0.074  -1.063  1.00  0.00     0.171 HD
ENDROOT
BRANCH  10  13
ATOM     13  C   UNL     1      -1.146  -0.852   0.258  1.00  0.00     0.043 A 
ATOM     14  C   UNL     1      -1.394  -1.975   1.065  1.00  0.00     0.026 A 
ATOM     15  C   UNL     1      -2.230  -0.125  -0.257  1.00  0.00     0.035 A 
ATOM     16  C   UNL     1      -2.704  -2.339   1.381  1.00  0.00     0.003 A 
ATOM     17  C   UNL     1      -3.554  -0.484   0.057  1.00  0.00    -0.016 A 
ATOM     18  C   UNL     1      -3.779  -1.598   0.886  1.00  0.00     0.009 A 
BRANCH  17  19
ATOM     19  C   UNL     1      -4.696   0.299  -0.479  1.00  0.00    -0.018 A 
ATOM     20  C   UNL     1      -5.857  -0.351  -0.940  1.00  0.00     0.009 A 
ATOM     21  C   UNL     1      -4.636   1.705  -0.535  1.00  0.00     0.009 A 
ATOM     22  C   UNL     1      -6.931   0.390  -1.444  1.00  0.00     0.001 A 
ATOM     23  C   UNL     1      -5.713   2.440  -1.040  1.00  0.00     0.001 A 
ATOM     24  C   UNL     1      -6.859   1.784  -1.495  1.00  0.00     0.000 A 
ENDBRANCH  17  19
ENDBRANCH  10  13
TORSDOF 2
