REMARK SMILES O=c1nc(Nc2cccc(Cl)c2)oc2cc(Cl)oc(=O)c12
REMARK SMILES IDX 5 1 4 3 2 4 3 5 21 6 19 7 14 8 13 9 18 10 15 11 16 12 1 13
REMARK SMILES IDX 20 14 17 15 6 16 7 17 12 18 8 19 10 20 9 21 11 22
REMARK H PARENT 5 2
ROOT
ATOM      1  N   UNL     1      -0.987   0.737   0.721  1.00  0.00    -0.309 N 
ATOM      2  H   UNL     1      -1.010   1.453   1.482  1.00  0.00     0.171 HD
ENDROOT
BRANCH   1   3
ATOM      3  C   UNL     1       0.299   0.366   0.204  1.00  0.00     0.303 A 
ATOM      4  C   UNL     1       1.626  -0.599  -1.500  1.00  0.00     0.292 A 
ATOM      5  N   UNL     1       0.412  -0.261  -0.998  1.00  0.00    -0.156 NA
ATOM      6  C   UNL     1       2.785  -0.290  -0.766  1.00  0.00     0.170 A 
ATOM      7  C   UNL     1       4.100  -0.590  -1.182  1.00  0.00     0.353 A 
ATOM      8  C   UNL     1       2.609   0.366   0.466  1.00  0.00     0.156 A 
ATOM      9  O   UNL     1       1.391   0.668   0.899  1.00  0.00    -0.424 OA
ATOM     10  O   UNL     1       5.134  -0.252  -0.414  1.00  0.00    -0.410 OA
ATOM     11  C   UNL     1       3.724   0.699   1.233  1.00  0.00     0.108 A 
ATOM     12  C   UNL     1       4.994   0.369   0.754  1.00  0.00     0.201 A 
ATOM     13  O   UNL     1       1.690  -1.183  -2.615  1.00  0.00    -0.266 OA
ATOM     14  O   UNL     1       4.319  -1.176  -2.275  1.00  0.00    -0.245 OA
ATOM     15  Cl  UNL     1       6.417   0.772   1.692  1.00  0.00    -0.043 Cl
ENDBRANCH   1   3
BRANCH   1  16
ATOM     16  C   UNL     1      -2.239   0.274   0.187  1.00  0.00     0.044 A 
ATOM     17  C   UNL     1      -2.392  -1.043  -0.285  1.00  0.00     0.026 A 
ATOM     18  C   UNL     1      -3.350   1.131   0.195  1.00  0.00     0.046 A 
ATOM     19  C   UNL     1      -3.628  -1.476  -0.776  1.00  0.00     0.004 A 
ATOM     20  C   UNL     1      -4.585   0.696  -0.298  1.00  0.00     0.043 A 
ATOM     21  C   UNL     1      -4.722  -0.607  -0.788  1.00  0.00     0.020 A 
ATOM     22  Cl  UNL     1      -5.962   1.782  -0.299  1.00  0.00    -0.084 Cl
ENDBRANCH   1  16
TORSDOF 2
