REMARK SMILES Oc1nc(=S)c2ncn(-c3ccccc3)c2[nH]1
REMARK SMILES IDX 2 1 3 2 4 3 5 4 6 5 7 6 8 7 9 8 16 9 17 10 1 12 10 14 11 15
REMARK SMILES IDX 15 16 12 17 14 18 13 19
REMARK H PARENT 17 11 1 13
ROOT
ATOM      1  C   UNL     1      -2.808  -1.491   0.055  1.00  0.00     0.294 A 
ATOM      2  N   UNL     1      -3.842  -0.602   0.213  1.00  0.00    -0.183 NA
ATOM      3  C   UNL     1      -3.614   0.736   0.363  1.00  0.00     0.161 A 
ATOM      4  S   UNL     1      -4.864   1.769   0.575  1.00  0.00    -0.055 S 
ATOM      5  C   UNL     1      -2.296   1.174   0.340  1.00  0.00     0.143 A 
ATOM      6  N   UNL     1      -1.806   2.416   0.516  1.00  0.00    -0.231 NA
ATOM      7  C   UNL     1      -0.461   2.225   0.433  1.00  0.00     0.207 A 
ATOM      8  N   UNL     1      -0.112   0.930   0.210  1.00  0.00    -0.285 N 
ATOM      9  C   UNL     1      -1.290   0.285   0.159  1.00  0.00     0.149 A 
ATOM     10  N   UNL     1      -1.513  -1.049   0.037  1.00  0.00    -0.293 N 
ATOM     11  H   UNL     1      -0.728  -1.730  -0.047  1.00  0.00     0.173 HD
ENDROOT
BRANCH   1  12
ATOM     12  O   UNL     1      -3.076  -2.849  -0.081  1.00  0.00    -0.480 OA
ATOM     13  H   UNL     1      -4.029  -3.194  -0.068  1.00  0.00     0.296 HD
ENDBRANCH   1  12
BRANCH   8  14
ATOM     14  C   UNL     1       1.218   0.410   0.056  1.00  0.00     0.049 A 
ATOM     15  C   UNL     1       2.247   0.841   0.910  1.00  0.00     0.027 A 
ATOM     16  C   UNL     1       1.518  -0.496  -0.976  1.00  0.00     0.027 A 
ATOM     17  C   UNL     1       3.547   0.350   0.753  1.00  0.00     0.002 A 
ATOM     18  C   UNL     1       2.819  -0.984  -1.131  1.00  0.00     0.002 A 
ATOM     19  C   UNL     1       3.832  -0.564  -0.265  1.00  0.00     0.000 A 
ENDBRANCH   8  14
TORSDOF 2
