REMARK SMILES C=C(O)C1=C(O)[C@@]2(C)c3c(OC(C)=O)c(C)c(OC(C)=O)c(C(=C)O)c3O[C@@H]2CC1=O
REMARK SMILES IDX 4 1 5 2 7 3 8 4 9 5 10 6 15 7 16 8 17 9 22 10 26 11 27 12
REMARK SMILES IDX 28 13 29 14 30 15 31 16 2 17 1 18 3 19 6 21 11 23 12 24
REMARK SMILES IDX 13 25 14 26 23 27 24 28 25 29 18 31 19 32 20 33 21 34
REMARK H PARENT 3 20 6 22 25 30
ROOT
ATOM      1  C   UNL     1      -3.838  -0.241   0.173  1.00  0.00     0.097 C 
ATOM      2  C   UNL     1      -2.606   0.339   0.295  1.00  0.00     0.121 C 
ATOM      3  C   UNL     1      -1.478  -0.208  -0.553  1.00  0.00     0.095 C 
ATOM      4  C   UNL     1      -1.611   0.335  -2.001  1.00  0.00     0.029 C 
ATOM      5  C   UNL     1      -0.040  -0.049  -0.137  1.00  0.00     0.055 A 
ATOM      6  C   UNL     1       0.688   1.116   0.127  1.00  0.00     0.145 A 
ATOM      7  C   UNL     1       2.095   1.016   0.273  1.00  0.00     0.036 A 
ATOM      8  C   UNL     1       2.912   2.213   0.686  1.00  0.00     0.052 C 
ATOM      9  C   UNL     1       2.749  -0.219   0.017  1.00  0.00     0.152 A 
ATOM     10  C   UNL     1       1.999  -1.358  -0.380  1.00  0.00     0.101 A 
ATOM     11  C   UNL     1       0.607  -1.235  -0.436  1.00  0.00     0.142 A 
ATOM     12  O   UNL     1      -0.295  -2.220  -0.824  1.00  0.00    -0.487 OA
ATOM     13  C   UNL     1      -1.578  -1.744  -0.453  1.00  0.00     0.199 C 
ATOM     14  C   UNL     1      -2.807  -2.278  -1.174  1.00  0.00     0.128 C 
ATOM     15  C   UNL     1      -4.007  -1.487  -0.670  1.00  0.00     0.173 C 
ATOM     16  O   UNL     1      -5.162  -1.879  -0.986  1.00  0.00    -0.294 OA
ENDROOT
BRANCH   1  17
ATOM     17  C   UNL     1      -5.021   0.340   0.849  1.00  0.00     0.122 C 
ATOM     18  C   UNL     1      -5.829  -0.423   1.589  1.00  0.00     0.059 C 
BRANCH  17  19
ATOM     19  O   UNL     1      -5.289   1.701   0.699  1.00  0.00    -0.508 OA
ATOM     20  H   UNL     1      -6.081   2.145   1.150  1.00  0.00     0.293 HD
ENDBRANCH  17  19
ENDBRANCH   1  17
BRANCH   2  21
ATOM     21  O   UNL     1      -2.364   1.417   1.150  1.00  0.00    -0.510 OA
ATOM     22  H   UNL     1      -3.046   1.769   1.809  1.00  0.00     0.293 HD
ENDBRANCH   2  21
BRANCH   6  23
ATOM     23  O   UNL     1       0.015   2.337   0.239  1.00  0.00    -0.426 OA
BRANCH  23  24
ATOM     24  C   UNL     1       0.260   3.432  -0.597  1.00  0.00     0.308 C 
ATOM     25  C   UNL     1      -0.444   4.720  -0.338  1.00  0.00     0.139 C 
ATOM     26  O   UNL     1       1.007   3.319  -1.607  1.00  0.00    -0.252 OA
ENDBRANCH  23  24
ENDBRANCH   6  23
BRANCH  10  27
ATOM     27  C   UNL     1       2.659  -2.619  -0.797  1.00  0.00     0.123 C 
ATOM     28  C   UNL     1       2.245  -3.799  -0.335  1.00  0.00     0.059 C 
BRANCH  27  29
ATOM     29  O   UNL     1       3.736  -2.586  -1.681  1.00  0.00    -0.508 OA
ATOM     30  H   UNL     1       4.058  -1.718  -2.091  1.00  0.00     0.293 HD
ENDBRANCH  27  29
ENDBRANCH  10  27
BRANCH   9  31
ATOM     31  O   UNL     1       4.144  -0.283   0.149  1.00  0.00    -0.425 OA
BRANCH  31  32
ATOM     32  C   UNL     1       4.804  -1.202   0.974  1.00  0.00     0.308 C 
ATOM     33  C   UNL     1       6.290  -1.298   0.925  1.00  0.00     0.139 C 
ATOM     34  O   UNL     1       4.160  -1.916   1.790  1.00  0.00    -0.252 OA
ENDBRANCH  31  32
ENDBRANCH   9  31
TORSDOF 9
