REMARK SMILES C1=Nc2ccccc2Cn2nncc21
REMARK SMILES IDX 1 1 2 2 3 3 4 4 5 5 6 6 7 7 8 8 9 9 10 10 11 11 12 12 13 13
REMARK SMILES IDX 14 14
REMARK H PARENT
ROOT
ATOM      1  C   UNL     1       1.587   1.622   0.424  1.00  0.00     0.141 C 
ATOM      2  N   UNL     1       0.305   1.812   0.542  1.00  0.00    -0.254 NA
ATOM      3  C   UNL     1      -0.783   0.907   0.267  1.00  0.00     0.068 A 
ATOM      4  C   UNL     1      -1.996   1.479  -0.145  1.00  0.00     0.028 A 
ATOM      5  C   UNL     1      -3.100   0.681  -0.445  1.00  0.00     0.002 A 
ATOM      6  C   UNL     1      -3.013  -0.704  -0.324  1.00  0.00     0.001 A 
ATOM      7  C   UNL     1      -1.826  -1.294   0.112  1.00  0.00     0.008 A 
ATOM      8  C   UNL     1      -0.702  -0.504   0.419  1.00  0.00    -0.001 A 
ATOM      9  C   UNL     1       0.521  -1.177   0.978  1.00  0.00     0.184 C 
ATOM     10  N   UNL     1       1.683  -0.856   0.166  1.00  0.00    -0.239 N 
ATOM     11  N   UNL     1       2.541  -1.741  -0.314  1.00  0.00    -0.066 NA
ATOM     12  N   UNL     1       3.582  -1.121  -0.855  1.00  0.00    -0.138 NA
ATOM     13  C   UNL     1       3.385   0.204  -0.694  1.00  0.00     0.167 A 
ATOM     14  C   UNL     1       2.178   0.367  -0.053  1.00  0.00     0.100 A 
ENDROOT
TORSDOF 0
