REMARK SMILES Cc1nc2cccnc2nc1C
REMARK SMILES IDX 1 1 2 2 3 3 4 4 5 5 6 6 7 7 8 8 9 9 10 10 11 11 12 12
REMARK H PARENT
ROOT
ATOM      1  C   UNL     1      -2.195   1.725  -0.780  1.00  0.00     0.069 C 
ATOM      2  C   UNL     1      -1.116   0.776  -0.350  1.00  0.00     0.059 A 
ATOM      3  N   UNL     1       0.185   1.134  -0.526  1.00  0.00    -0.248 NA
ATOM      4  C   UNL     1       1.201   0.314  -0.154  1.00  0.00     0.108 A 
ATOM      5  C   UNL     1       2.535   0.686  -0.337  1.00  0.00     0.034 A 
ATOM      6  C   UNL     1       3.553  -0.186   0.058  1.00  0.00     0.022 A 
ATOM      7  C   UNL     1       3.220  -1.419   0.630  1.00  0.00     0.114 A 
ATOM      8  N   UNL     1       1.914  -1.765   0.801  1.00  0.00    -0.235 NA
ATOM      9  C   UNL     1       0.907  -0.933   0.424  1.00  0.00     0.178 A 
ATOM     10  N   UNL     1      -0.388  -1.295   0.602  1.00  0.00    -0.230 NA
ATOM     11  C   UNL     1      -1.413  -0.478   0.232  1.00  0.00     0.061 A 
ATOM     12  C   UNL     1      -2.824  -0.935   0.454  1.00  0.00     0.069 C 
ENDROOT
TORSDOF 0
