REMARK SMILES COc1cc2occ(O)c2c(OC)c1O
REMARK SMILES IDX 8 1 7 2 6 3 5 4 4 5 3 6 14 7 11 8 10 9 9 10 12 12 13 13
REMARK SMILES IDX 15 14 2 16 1 17
REMARK H PARENT 9 11 15 15
ROOT
ATOM      1  C   UNL     1      -2.353  -1.280  -0.612  1.00  0.00     0.165 A 
ATOM      2  C   UNL     1      -2.071  -2.631  -0.744  1.00  0.00     0.242 A 
ATOM      3  O   UNL     1      -0.783  -2.831  -0.532  1.00  0.00    -0.460 OA
ATOM      4  C   UNL     1      -0.231  -1.667  -0.271  1.00  0.00     0.145 A 
ATOM      5  C   UNL     1       1.103  -1.412   0.012  1.00  0.00     0.098 A 
ATOM      6  C   UNL     1       1.492  -0.075   0.267  1.00  0.00     0.168 A 
ATOM      7  C   UNL     1       0.521   0.967   0.230  1.00  0.00     0.201 A 
ATOM      8  C   UNL     1      -0.842   0.670  -0.064  1.00  0.00     0.179 A 
ATOM      9  C   UNL     1      -1.162  -0.666  -0.306  1.00  0.00     0.108 A 
ENDROOT
BRANCH   1  10
ATOM     10  O   UNL     1      -3.594  -0.669  -0.759  1.00  0.00    -0.504 OA
ATOM     11  H   UNL     1      -4.416  -1.215  -0.986  1.00  0.00     0.293 HD
ENDBRANCH   1  10
BRANCH   8  12
ATOM     12  O   UNL     1      -1.874   1.623  -0.125  1.00  0.00    -0.492 OA
ATOM     13  C   UNL     1      -1.734   3.022   0.092  1.00  0.00     0.278 C 
ENDBRANCH   8  12
BRANCH   7  14
ATOM     14  O   UNL     1       0.915   2.281   0.483  1.00  0.00    -0.502 OA
ATOM     15  H   UNL     1       1.873   2.532   0.695  1.00  0.00     0.293 HD
ENDBRANCH   7  14
BRANCH   6  16
ATOM     16  O   UNL     1       2.825   0.257   0.560  1.00  0.00    -0.493 OA
ATOM     17  C   UNL     1       3.894  -0.681   0.630  1.00  0.00     0.278 C 
ENDBRANCH   6  16
TORSDOF 4
