REMARK SMILES O[C@H](c1cc(C(F)(F)F)nc2c(Cl)cc(Cl)cc12)[C@@H]1CCCC[NH2+]1
REMARK SMILES IDX 3 1 4 2 18 3 5 4 17 5 11 6 10 7 15 8 12 9 14 10 16 11 13 12
REMARK SMILES IDX 2 13 19 14 24 15 20 16 23 17 21 18 22 19 1 22 6 24 7 25 8 26
REMARK SMILES IDX 9 27
REMARK H PARENT 24 20 24 21 1 23
ROOT
ATOM      1  C   UNL     1      -1.129  -0.161  -0.636  1.00  0.00    -0.002 A 
ATOM      2  C   UNL     1      -1.564  -1.498  -0.709  1.00  0.00     0.040 A 
ATOM      3  C   UNL     1      -1.839   0.737   0.223  1.00  0.00     0.009 A 
ATOM      4  C   UNL     1      -2.687  -1.926   0.001  1.00  0.00     0.145 A 
ATOM      5  C   UNL     1      -1.463   2.084   0.436  1.00  0.00     0.031 A 
ATOM      6  C   UNL     1      -2.982   0.249   0.916  1.00  0.00     0.090 A 
ATOM      7  N   UNL     1      -3.361  -1.048   0.781  1.00  0.00    -0.242 NA
ATOM      8  C   UNL     1      -2.208   2.914   1.278  1.00  0.00     0.043 A 
ATOM      9  C   UNL     1      -3.725   1.095   1.756  1.00  0.00     0.068 A 
ATOM     10  C   UNL     1      -3.338   2.423   1.930  1.00  0.00     0.043 A 
ATOM     11  Cl  UNL     1      -1.715   4.580   1.527  1.00  0.00    -0.084 Cl
ATOM     12  Cl  UNL     1      -5.145   0.504   2.609  1.00  0.00    -0.082 Cl
ENDROOT
BRANCH   1  13
ATOM     13  C   UNL     1       0.100   0.194  -1.478  1.00  0.00     0.203 C 
BRANCH  13  14
ATOM     14  C   UNL     1       1.433  -0.090  -0.726  1.00  0.00     0.216 C 
ATOM     15  N   UNL     1       2.582  -0.011  -1.654  1.00  0.00    -0.341 N 
ATOM     16  C   UNL     1       1.656   0.847   0.482  1.00  0.00     0.068 C 
ATOM     17  C   UNL     1       3.840  -0.394  -0.992  1.00  0.00     0.260 C 
ATOM     18  C   UNL     1       2.973   0.512   1.189  1.00  0.00     0.012 C 
ATOM     19  C   UNL     1       4.139   0.525   0.198  1.00  0.00     0.062 C 
ATOM     20  H   UNL     1       2.680   0.961  -2.033  1.00  0.00     0.346 HD
ATOM     21  H   UNL     1       2.430  -0.665  -2.457  1.00  0.00     0.346 HD
ENDBRANCH  13  14
BRANCH  13  22
ATOM     22  O   UNL     1       0.038   1.510  -1.969  1.00  0.00    -0.382 OA
ATOM     23  H   UNL     1       0.531   1.535  -2.830  1.00  0.00     0.211 HD
ENDBRANCH  13  22
ENDBRANCH   1  13
BRANCH   4  24
ATOM     24  C   UNL     1      -3.149  -3.351  -0.097  1.00  0.00     0.433 C 
ATOM     25  F   UNL     1      -4.271  -3.554   0.687  1.00  0.00    -0.165 F 
ATOM     26  F   UNL     1      -2.143  -4.197   0.335  1.00  0.00    -0.165 F 
ATOM     27  F   UNL     1      -3.462  -3.649  -1.411  1.00  0.00    -0.165 F 
ENDBRANCH   4  24
TORSDOF 4
