REMARK SMILES NC(=O)Nc1nc(-c2ccccc2)n[nH]1
REMARK SMILES IDX 5 1 6 2 7 3 14 4 15 5 4 7 2 8 1 9 3 11 8 14 9 15 13 16 10 17
REMARK SMILES IDX 12 18 11 19
REMARK H PARENT 15 6 4 10 1 12 1 13
ROOT
ATOM      1  C   UNL     1       1.720  -0.060  -0.057  1.00  0.00     0.227 A 
ATOM      2  N   UNL     1       0.560   0.582  -0.294  1.00  0.00    -0.191 NA
ATOM      3  C   UNL     1      -0.348  -0.292   0.197  1.00  0.00     0.183 A 
ATOM      4  N   UNL     1       0.227  -1.396   0.718  1.00  0.00    -0.152 NA
ATOM      5  N   UNL     1       1.528  -1.241   0.556  1.00  0.00    -0.244 N 
ATOM      6  H   UNL     1       2.244  -1.918   0.897  1.00  0.00     0.193 HD
ENDROOT
BRANCH   1   7
ATOM      7  N   UNL     1       3.001   0.507  -0.367  1.00  0.00    -0.277 N 
ATOM      8  C   UNL     1       4.216  -0.246  -0.487  1.00  0.00     0.318 C 
ATOM      9  N   UNL     1       5.465   0.434  -0.596  1.00  0.00    -0.351 N 
ATOM     10  H   UNL     1       3.039   1.532  -0.567  1.00  0.00     0.175 HD
ATOM     11  O   UNL     1       4.192  -1.505  -0.533  1.00  0.00    -0.249 OA
ATOM     12  H   UNL     1       6.353  -0.105  -0.700  1.00  0.00     0.161 HD
ATOM     13  H   UNL     1       5.506   1.477  -0.569  1.00  0.00     0.161 HD
ENDBRANCH   1   7
BRANCH   3  14
ATOM     14  C   UNL     1      -1.808  -0.057   0.176  1.00  0.00     0.021 A 
ATOM     15  C   UNL     1      -2.333   1.123  -0.380  1.00  0.00     0.012 A 
ATOM     16  C   UNL     1      -2.692  -1.012   0.712  1.00  0.00     0.012 A 
ATOM     17  C   UNL     1      -3.714   1.343  -0.398  1.00  0.00     0.001 A 
ATOM     18  C   UNL     1      -4.072  -0.787   0.692  1.00  0.00     0.001 A 
ATOM     19  C   UNL     1      -4.583   0.389   0.137  1.00  0.00     0.000 A 
ENDBRANCH   3  14
TORSDOF 2
