REMARK SMILES Cn1c(=O)c2c(nc(Cc3ccc(N)cc3)n2C)n(C)c1=O
REMARK SMILES IDX 10 1 11 2 12 3 13 4 15 5 16 6 9 7 8 8 2 9 3 10 21 11 5 12
REMARK SMILES IDX 19 13 6 14 17 15 7 16 1 17 4 18 22 19 20 20 18 21 14 22
REMARK H PARENT 14 23 14 24
ROOT
ATOM      1  C   UNL     1      -2.379   0.294  -1.145  1.00  0.00    -0.040 A 
ATOM      2  C   UNL     1      -3.237   1.278  -0.626  1.00  0.00     0.006 A 
ATOM      3  C   UNL     1      -4.287   0.921   0.225  1.00  0.00     0.026 A 
ATOM      4  C   UNL     1      -4.494  -0.422   0.567  1.00  0.00     0.031 A 
ATOM      5  C   UNL     1      -3.642  -1.407   0.048  1.00  0.00     0.026 A 
ATOM      6  C   UNL     1      -2.591  -1.052  -0.803  1.00  0.00     0.006 A 
ENDROOT
BRANCH   1   7
ATOM      7  C   UNL     1      -1.235   0.671  -2.048  1.00  0.00     0.111 C 
BRANCH   7   8
ATOM      8  C   UNL     1       0.079   0.457  -1.351  1.00  0.00     0.116 A 
ATOM      9  N   UNL     1       3.653   0.076   1.259  1.00  0.00    -0.261 N 
ATOM     10  C   UNL     1       2.606   0.940   1.034  1.00  0.00     0.282 A 
ATOM     11  C   UNL     1       3.761  -1.095   0.527  1.00  0.00     0.332 A 
ATOM     12  C   UNL     1       1.704   0.634   0.020  1.00  0.00     0.152 A 
ATOM     13  N   UNL     1       2.864  -1.382  -0.478  1.00  0.00    -0.279 N 
ATOM     14  C   UNL     1       1.845  -0.506  -0.695  1.00  0.00     0.168 A 
ATOM     15  N   UNL     1       0.592   1.275  -0.389  1.00  0.00    -0.325 N 
ATOM     16  N   UNL     1       0.829  -0.656  -1.565  1.00  0.00    -0.215 NA
ATOM     17  C   UNL     1       4.612   0.353   2.342  1.00  0.00     0.159 C 
ATOM     18  O   UNL     1       2.455   1.977   1.737  1.00  0.00    -0.267 OA
ATOM     19  O   UNL     1       4.687  -1.914   0.787  1.00  0.00    -0.247 OA
ATOM     20  C   UNL     1       2.946  -2.639  -1.235  1.00  0.00     0.157 C 
ATOM     21  C   UNL     1       0.005   2.494   0.169  1.00  0.00     0.152 C 
ENDBRANCH   7   8
ENDBRANCH   1   7
BRANCH   4  22
ATOM     22  N   UNL     1      -5.568  -0.786   1.438  1.00  0.00    -0.399 N 
ATOM     23  H   UNL     1      -5.730  -1.784   1.699  1.00  0.00     0.156 HD
ATOM     24  H   UNL     1      -6.208  -0.060   1.829  1.00  0.00     0.156 HD
ENDBRANCH   4  22
TORSDOF 3
