REMARK SMILES CC(C)(C)c1ccc(OC(=O)c2ccccc2)cc1
REMARK SMILES IDX 5 1 6 2 7 3 8 4 18 5 19 6 2 7 1 8 3 9 4 10 9 11 10 12 11 13
REMARK SMILES IDX 12 14 13 15 17 16 14 17 16 18 15 19
REMARK H PARENT
ROOT
ATOM      1  C   UNL     1      -2.443   0.108  -0.054  1.00  0.00    -0.042 A 
ATOM      2  C   UNL     1      -1.816   1.373  -0.023  1.00  0.00     0.008 A 
ATOM      3  C   UNL     1      -0.425   1.488   0.020  1.00  0.00     0.047 A 
ATOM      4  C   UNL     1       0.384   0.351   0.021  1.00  0.00     0.131 A 
ATOM      5  C   UNL     1      -0.220  -0.916   0.013  1.00  0.00     0.047 A 
ATOM      6  C   UNL     1      -1.612  -1.037  -0.028  1.00  0.00     0.008 A 
ENDROOT
BRANCH   1   7
ATOM      7  C   UNL     1      -3.983   0.021  -0.102  1.00  0.00    -0.013 C 
ATOM      8  C   UNL     1      -4.509  -1.434  -0.141  1.00  0.00     0.016 C 
ATOM      9  C   UNL     1      -4.575   0.701   1.152  1.00  0.00     0.016 C 
ATOM     10  C   UNL     1      -4.501   0.740  -1.367  1.00  0.00     0.016 C 
ENDBRANCH   1   7
BRANCH   4  11
ATOM     11  O   UNL     1       1.776   0.519   0.074  1.00  0.00    -0.423 OA
BRANCH  11  12
ATOM     12  C   UNL     1       2.723  -0.373  -0.450  1.00  0.00     0.343 C 
ATOM     13  O   UNL     1       2.379  -1.246  -1.293  1.00  0.00    -0.246 OA
BRANCH  12  14
ATOM     14  C   UNL     1       4.143  -0.248  -0.053  1.00  0.00     0.060 A 
ATOM     15  C   UNL     1       4.539   0.741   0.866  1.00  0.00     0.015 A 
ATOM     16  C   UNL     1       5.117  -1.114  -0.585  1.00  0.00     0.015 A 
ATOM     17  C   UNL     1       5.881   0.859   1.243  1.00  0.00     0.001 A 
ATOM     18  C   UNL     1       6.457  -0.991  -0.204  1.00  0.00     0.001 A 
ATOM     19  C   UNL     1       6.838  -0.005   0.709  1.00  0.00     0.000 A 
ENDBRANCH  12  14
ENDBRANCH  11  12
ENDBRANCH   4  11
TORSDOF 4
