REMARK SMILES CCOC(=O)c1ccc(NC(=O)N2C[C@@H](C)O[C@H](C)C2)cc1
REMARK SMILES IDX 4 1 5 2 3 3 2 4 1 5 6 6 7 7 22 8 8 9 21 10 9 11 10 12 11 13
REMARK SMILES IDX 13 14 14 15 20 16 15 17 18 18 17 19 12 21 16 22 19 23
REMARK H PARENT 10 20
ROOT
ATOM      1  C   UNL     1       5.171  -0.103   0.752  1.00  0.00     0.338 C 
ATOM      2  O   UNL     1       5.866   0.843   1.217  1.00  0.00    -0.246 OA
ENDROOT
BRANCH   1   3
ATOM      3  O   UNL     1       5.788  -1.294   0.347  1.00  0.00    -0.462 OA
BRANCH   3   4
ATOM      4  C   UNL     1       7.199  -1.497   0.368  1.00  0.00     0.230 C 
ATOM      5  C   UNL     1       7.866  -0.764  -0.790  1.00  0.00     0.049 C 
ENDBRANCH   3   4
ENDBRANCH   1   3
BRANCH   1   6
ATOM      6  C   UNL     1       3.703   0.040   0.642  1.00  0.00     0.060 A 
ATOM      7  C   UNL     1       2.924  -1.012   0.130  1.00  0.00     0.018 A 
ATOM      8  C   UNL     1       3.063   1.223   1.052  1.00  0.00     0.018 A 
ATOM      9  C   UNL     1       1.537  -0.880   0.022  1.00  0.00     0.027 A 
ATOM     10  C   UNL     1       1.676   1.352   0.944  1.00  0.00     0.027 A 
ATOM     11  C   UNL     1       0.903   0.312   0.410  1.00  0.00     0.042 A 
BRANCH  11  12
ATOM     12  N   UNL     1      -0.524   0.464   0.334  1.00  0.00    -0.308 N 
ATOM     13  C   UNL     1      -1.332  -0.039  -0.745  1.00  0.00     0.322 C 
ATOM     14  N   UNL     1      -2.762   0.108  -0.712  1.00  0.00    -0.319 N 
ATOM     15  C   UNL     1      -3.607  -0.901  -1.350  1.00  0.00     0.153 C 
ATOM     16  C   UNL     1      -3.369   1.418  -0.477  1.00  0.00     0.153 C 
ATOM     17  C   UNL     1      -4.981  -0.954  -0.657  1.00  0.00     0.135 C 
ATOM     18  C   UNL     1      -4.728   1.230   0.215  1.00  0.00     0.135 C 
ATOM     19  O   UNL     1      -5.559   0.338  -0.515  1.00  0.00    -0.372 OA
ATOM     20  H   UNL     1      -0.987   1.016   1.089  1.00  0.00     0.171 HD
ATOM     21  O   UNL     1      -0.792  -0.612  -1.730  1.00  0.00    -0.248 OA
ATOM     22  C   UNL     1      -4.936  -1.729   0.670  1.00  0.00     0.040 C 
ATOM     23  C   UNL     1      -5.446   2.573   0.339  1.00  0.00     0.040 C 
ENDBRANCH  11  12
ENDBRANCH   1   6
TORSDOF 4
