REMARK SMILES c1ccc2c(c1)[nH]c1c3ccccc3sc21
REMARK SMILES IDX 1 1 2 2 3 3 4 4 5 5 6 6 7 7 8 8 9 9 10 10 11 11 12 12 13 13
REMARK SMILES IDX 14 14 15 15 16 16
REMARK H PARENT 7 17
ROOT
ATOM      1  C   UNL     1      -4.240   0.091   0.139  1.00  0.00     0.002 A 
ATOM      2  C   UNL     1      -3.975  -0.928   1.084  1.00  0.00     0.001 A 
ATOM      3  C   UNL     1      -2.652  -1.285   1.401  1.00  0.00     0.012 A 
ATOM      4  C   UNL     1      -1.631  -0.600   0.752  1.00  0.00     0.017 A 
ATOM      5  C   UNL     1      -1.880   0.402  -0.177  1.00  0.00     0.047 A 
ATOM      6  C   UNL     1      -3.184   0.768  -0.503  1.00  0.00     0.027 A 
ATOM      7  N   UNL     1      -0.731   0.926  -0.679  1.00  0.00    -0.353 N 
ATOM      8  C   UNL     1       0.233   0.230  -0.042  1.00  0.00     0.065 A 
ATOM      9  C   UNL     1       1.618   0.269  -0.093  1.00  0.00     0.017 A 
ATOM     10  C   UNL     1       2.434   1.092  -0.868  1.00  0.00     0.012 A 
ATOM     11  C   UNL     1       3.827   0.950  -0.751  1.00  0.00     0.001 A 
ATOM     12  C   UNL     1       4.379  -0.003   0.130  1.00  0.00     0.002 A 
ATOM     13  C   UNL     1       3.546  -0.827   0.905  1.00  0.00     0.020 A 
ATOM     14  C   UNL     1       2.167  -0.678   0.782  1.00  0.00     0.037 A 
ATOM     15  S   UNL     1       0.945  -1.550   1.607  1.00  0.00    -0.133 S 
ATOM     16  C   UNL     1      -0.268  -0.687   0.817  1.00  0.00     0.061 A 
ATOM     17  H   UNL     1      -0.620   1.686  -1.386  1.00  0.00     0.167 HD
ENDROOT
TORSDOF 0
