REMARK SMILES C=CCNC(=O)[C@H]1COc2ccccc2O1
REMARK SMILES IDX 3 1 2 2 1 3 4 4 5 5 6 7 7 8 8 9 16 10 9 11 15 12 10 13 14 14
REMARK SMILES IDX 11 15 13 16 12 17
REMARK H PARENT 4 6
ROOT
ATOM      1  C   UNL     1       3.856  -0.117   0.078  1.00  0.00     0.143 C 
ENDROOT
BRANCH   1   2
ATOM      2  C   UNL     1       4.822   0.148  -1.046  1.00  0.00    -0.014 C 
ATOM      3  C   UNL     1       4.878   1.340  -1.648  1.00  0.00     0.006 C 
ENDBRANCH   1   2
BRANCH   1   4
ATOM      4  N   UNL     1       2.476  -0.112  -0.408  1.00  0.00    -0.349 N 
ATOM      5  C   UNL     1       1.363  -0.126   0.496  1.00  0.00     0.264 C 
ATOM      6  H   UNL     1       2.288  -0.153  -1.436  1.00  0.00     0.163 HD
ATOM      7  O   UNL     1       1.558  -0.188   1.741  1.00  0.00    -0.271 OA
BRANCH   5   8
ATOM      8  C   UNL     1      -0.039  -0.138  -0.037  1.00  0.00     0.299 C 
ATOM      9  C   UNL     1      -0.542  -1.583  -0.210  1.00  0.00     0.285 C 
ATOM     10  O   UNL     1      -0.907   0.586   0.844  1.00  0.00    -0.473 OA
ATOM     11  O   UNL     1      -1.937  -1.586  -0.522  1.00  0.00    -0.485 OA
ATOM     12  C   UNL     1      -2.292   0.396   0.812  1.00  0.00     0.162 A 
ATOM     13  C   UNL     1      -2.816  -0.694   0.100  1.00  0.00     0.161 A 
ATOM     14  C   UNL     1      -3.151   1.275   1.480  1.00  0.00     0.050 A 
ATOM     15  C   UNL     1      -4.200  -0.876   0.017  1.00  0.00     0.050 A 
ATOM     16  C   UNL     1      -4.535   1.085   1.405  1.00  0.00     0.004 A 
ATOM     17  C   UNL     1      -5.059   0.014   0.671  1.00  0.00     0.004 A 
ENDBRANCH   5   8
ENDBRANCH   1   4
TORSDOF 3
