REMARK SMILES CC(=O)Nc1ccc(Cc2nc3c(=O)n(C)c(=O)n(C)c3[nH]2)cc1
REMARK SMILES IDX 8 1 7 2 6 3 5 4 24 5 23 6 9 7 10 8 22 9 21 10 11 11 19 12
REMARK SMILES IDX 12 13 17 14 13 15 15 16 20 18 18 19 14 20 16 21 4 22 2 23
REMARK SMILES IDX 1 25 3 26
REMARK H PARENT 22 17 4 24
ROOT
ATOM      1  C   UNL     1       1.503  -1.157   1.366  1.00  0.00    -0.040 A 
ATOM      2  C   UNL     1       1.929   0.050   1.942  1.00  0.00     0.006 A 
ATOM      3  C   UNL     1       3.006   0.751   1.393  1.00  0.00     0.026 A 
ATOM      4  C   UNL     1       3.658   0.272   0.246  1.00  0.00     0.041 A 
ATOM      5  C   UNL     1       3.235  -0.941  -0.325  1.00  0.00     0.026 A 
ATOM      6  C   UNL     1       2.158  -1.644   0.225  1.00  0.00     0.006 A 
ENDROOT
BRANCH   1   7
ATOM      7  C   UNL     1       0.319  -1.891   1.932  1.00  0.00     0.110 C 
BRANCH   7   8
ATOM      8  C   UNL     1      -0.936  -1.416   1.272  1.00  0.00     0.113 A 
ATOM      9  N   UNL     1      -1.609  -0.307   1.669  1.00  0.00    -0.327 N 
ATOM     10  C   UNL     1      -2.611  -0.215   0.782  1.00  0.00     0.147 A 
ATOM     11  N   UNL     1      -1.465  -2.015   0.171  1.00  0.00    -0.226 NA
ATOM     12  N   UNL     1      -3.597   0.721   0.731  1.00  0.00    -0.281 N 
ATOM     13  C   UNL     1      -2.524  -1.231  -0.103  1.00  0.00     0.171 A 
ATOM     14  C   UNL     1      -4.546   0.598  -0.264  1.00  0.00     0.332 A 
ATOM     15  C   UNL     1      -3.456  -1.358  -1.117  1.00  0.00     0.284 A 
ATOM     16  N   UNL     1      -4.461  -0.420  -1.202  1.00  0.00    -0.261 N 
ATOM     17  H   UNL     1      -1.388   0.322   2.473  1.00  0.00     0.169 HD
ATOM     18  C   UNL     1      -3.651   1.788   1.739  1.00  0.00     0.157 C 
ATOM     19  O   UNL     1      -5.505   1.418  -0.319  1.00  0.00    -0.247 OA
ATOM     20  O   UNL     1      -3.379  -2.318  -1.931  1.00  0.00    -0.267 OA
ATOM     21  C   UNL     1      -5.493  -0.545  -2.245  1.00  0.00     0.159 C 
ENDBRANCH   7   8
ENDBRANCH   1   7
BRANCH   4  22
ATOM     22  N   UNL     1       4.776   1.004  -0.286  1.00  0.00    -0.326 N 
ATOM     23  C   UNL     1       5.108   1.066  -1.682  1.00  0.00     0.221 C 
ATOM     24  H   UNL     1       5.334   1.594   0.372  1.00  0.00     0.169 HD
ATOM     25  C   UNL     1       6.397   1.686  -2.112  1.00  0.00     0.114 C 
ATOM     26  O   UNL     1       4.287   0.679  -2.556  1.00  0.00    -0.275 OA
ENDBRANCH   4  22
TORSDOF 3
