REMARK SMILES N#CC1=C(Nc2ccccc2Cl)S[C@H](c2ccccc2O)NC1=O
REMARK SMILES IDX 3 1 4 2 13 3 14 4 22 5 23 6 24 7 2 9 1 10 5 11 6 13 7 14
REMARK SMILES IDX 11 15 8 16 10 17 9 18 12 19 15 20 16 21 20 22 17 23 19 24
REMARK SMILES IDX 18 25 21 26
REMARK H PARENT 22 8 5 12 21 27
ROOT
ATOM      1  C   UNL     1       0.812   1.112  -1.130  1.00  0.00     0.147 C 
ATOM      2  C   UNL     1       0.801   0.310  -0.043  1.00  0.00     0.099 C 
ATOM      3  S   UNL     1      -0.545  -0.857   0.233  1.00  0.00    -0.077 SA
ATOM      4  C   UNL     1      -1.854   0.344  -0.163  1.00  0.00     0.181 C 
ATOM      5  N   UNL     1      -1.667   0.805  -1.541  1.00  0.00    -0.335 N 
ATOM      6  C   UNL     1      -0.373   1.205  -2.011  1.00  0.00     0.265 C 
ATOM      7  O   UNL     1      -0.258   1.685  -3.171  1.00  0.00    -0.268 OA
ATOM      8  H   UNL     1      -2.495   0.996  -2.150  1.00  0.00     0.165 HD
ENDROOT
BRANCH   1   9
ATOM      9  C   UNL     1       1.911   2.018  -1.375  1.00  0.00     0.108 C 
ATOM     10  N   UNL     1       2.790   2.744  -1.573  1.00  0.00    -0.192 NA
ENDBRANCH   1   9
BRANCH   2  11
ATOM     11  N   UNL     1       1.839   0.367   0.949  1.00  0.00    -0.348 N 
ATOM     12  H   UNL     1       1.534   0.407   1.946  1.00  0.00     0.167 HD
BRANCH  11  13
ATOM     13  C   UNL     1       3.232   0.133   0.665  1.00  0.00     0.058 A 
ATOM     14  C   UNL     1       3.621  -0.612  -0.465  1.00  0.00     0.027 A 
ATOM     15  C   UNL     1       4.227   0.623   1.537  1.00  0.00     0.064 A 
ATOM     16  C   UNL     1       4.972  -0.849  -0.727  1.00  0.00     0.002 A 
ATOM     17  C   UNL     1       5.579   0.380   1.265  1.00  0.00     0.023 A 
ATOM     18  C   UNL     1       5.950  -0.353   0.136  1.00  0.00     0.002 A 
ATOM     19  Cl  UNL     1       3.813   1.577   2.956  1.00  0.00    -0.082 Cl
ENDBRANCH  11  13
ENDBRANCH   2  11
BRANCH   4  20
ATOM     20  C   UNL     1      -3.204  -0.325   0.030  1.00  0.00     0.027 A 
ATOM     21  C   UNL     1      -3.720  -1.153  -0.990  1.00  0.00     0.010 A 
ATOM     22  C   UNL     1      -3.936  -0.208   1.243  1.00  0.00     0.121 A 
ATOM     23  C   UNL     1      -4.965  -1.769  -0.850  1.00  0.00     0.001 A 
ATOM     24  C   UNL     1      -5.191  -0.819   1.358  1.00  0.00     0.046 A 
ATOM     25  C   UNL     1      -5.706  -1.590   0.316  1.00  0.00     0.004 A 
BRANCH  22  26
ATOM     26  O   UNL     1      -3.450   0.480   2.357  1.00  0.00    -0.508 OA
ATOM     27  H   UNL     1      -2.503   0.824   2.442  1.00  0.00     0.293 HD
ENDBRANCH  22  26
ENDBRANCH   4  20
TORSDOF 5
