REMARK SMILES CCOC(=O)/C(C#N)=C/c1cccc(C)c1
REMARK SMILES IDX 4 1 5 2 3 3 2 4 1 5 6 6 7 7 8 8 9 9 10 10 11 11 16 12 12 13
REMARK SMILES IDX 14 14 13 15 15 16
REMARK H PARENT
ROOT
ATOM      1  C   UNL     1       2.358   0.826  -0.293  1.00  0.00     0.348 C 
ATOM      2  O   UNL     1       2.973   1.929  -0.328  1.00  0.00    -0.245 OA
ENDROOT
BRANCH   1   3
ATOM      3  O   UNL     1       3.053  -0.372  -0.508  1.00  0.00    -0.462 OA
BRANCH   3   4
ATOM      4  C   UNL     1       4.464  -0.439  -0.709  1.00  0.00     0.230 C 
ATOM      5  C   UNL     1       5.204  -0.254   0.610  1.00  0.00     0.049 C 
ENDBRANCH   3   4
ENDBRANCH   1   3
BRANCH   1   6
ATOM      6  C   UNL     1       0.901   0.806  -0.036  1.00  0.00     0.137 C 
BRANCH   6   7
ATOM      7  C   UNL     1       0.228   2.067   0.181  1.00  0.00     0.107 C 
ATOM      8  N   UNL     1      -0.309   3.078   0.356  1.00  0.00    -0.192 NA
ENDBRANCH   6   7
BRANCH   6   9
ATOM      9  C   UNL     1       0.242  -0.366   0.057  1.00  0.00     0.035 C 
BRANCH   9  10
ATOM     10  C   UNL     1      -1.212  -0.500   0.305  1.00  0.00    -0.024 A 
ATOM     11  C   UNL     1      -1.659  -1.452   1.234  1.00  0.00     0.008 A 
ATOM     12  C   UNL     1      -2.157   0.248  -0.420  1.00  0.00     0.011 A 
ATOM     13  C   UNL     1      -3.026  -1.616   1.475  1.00  0.00     0.001 A 
ATOM     14  C   UNL     1      -3.532   0.072  -0.193  1.00  0.00    -0.051 A 
ATOM     15  C   UNL     1      -3.959  -0.850   0.774  1.00  0.00     0.003 A 
ATOM     16  C   UNL     1      -4.532   0.909  -0.935  1.00  0.00     0.044 C 
ENDBRANCH   9  10
ENDBRANCH   6   9
ENDBRANCH   1   6
TORSDOF 6
