REMARK SMILES CN(C)c1ccc(/C=C2\C=C(c3ccc4c(c3)CCCC4)OC2=O)cc1
REMARK SMILES IDX 4 1 5 2 6 3 7 4 25 5 26 6 2 7 1 8 3 9 8 10 9 11 10 12 23 13
REMARK SMILES IDX 11 14 22 15 24 16 12 17 13 18 17 19 14 20 16 21 15 22 18 23
REMARK SMILES IDX 21 24 19 25 20 26
REMARK H PARENT
ROOT
ATOM      1  C   UNL     1       4.716   0.384   0.551  1.00  0.00     0.036 A 
ATOM      2  C   UNL     1       4.947   1.064  -0.664  1.00  0.00     0.026 A 
ATOM      3  C   UNL     1       4.159   0.806  -1.789  1.00  0.00     0.010 A 
ATOM      4  C   UNL     1       3.111  -0.121  -1.727  1.00  0.00    -0.025 A 
ATOM      5  C   UNL     1       2.893  -0.825  -0.533  1.00  0.00     0.010 A 
ATOM      6  C   UNL     1       3.679  -0.570   0.594  1.00  0.00     0.026 A 
ENDROOT
BRANCH   1   7
ATOM      7  N   UNL     1       5.531   0.653   1.722  1.00  0.00    -0.378 N 
ATOM      8  C   UNL     1       5.045   0.309   3.064  1.00  0.00     0.143 C 
ATOM      9  C   UNL     1       6.854   1.276   1.586  1.00  0.00     0.143 C 
ENDBRANCH   1   7
BRANCH   4  10
ATOM     10  C   UNL     1       2.317  -0.393  -2.943  1.00  0.00     0.024 C 
BRANCH  10  11
ATOM     11  C   UNL     1       0.984  -0.525  -2.952  1.00  0.00     0.064 C 
ATOM     12  C   UNL     1       0.026  -0.346  -1.857  1.00  0.00     0.063 C 
ATOM     13  C   UNL     1       0.148  -0.797  -4.104  1.00  0.00     0.343 C 
ATOM     14  C   UNL     1      -1.210  -0.517  -2.349  1.00  0.00     0.139 C 
ATOM     15  O   UNL     1      -1.179  -0.796  -3.718  1.00  0.00    -0.422 OA
ATOM     16  O   UNL     1       0.543  -1.004  -5.282  1.00  0.00    -0.246 OA
BRANCH  14  17
ATOM     17  C   UNL     1      -2.478  -0.416  -1.586  1.00  0.00     0.018 A 
ATOM     18  C   UNL     1      -3.698  -0.451  -2.279  1.00  0.00     0.012 A 
ATOM     19  C   UNL     1      -2.498  -0.295  -0.183  1.00  0.00     0.016 A 
ATOM     20  C   UNL     1      -4.910  -0.353  -1.594  1.00  0.00     0.005 A 
ATOM     21  C   UNL     1      -3.713  -0.211   0.516  1.00  0.00    -0.044 A 
ATOM     22  C   UNL     1      -4.932  -0.213  -0.200  1.00  0.00    -0.045 A 
ATOM     23  C   UNL     1      -3.679  -0.014   2.015  1.00  0.00     0.036 C 
ATOM     24  C   UNL     1      -6.267  -0.180   0.508  1.00  0.00     0.036 C 
ATOM     25  C   UNL     1      -5.020  -0.331   2.683  1.00  0.00     0.005 C 
ATOM     26  C   UNL     1      -6.162   0.358   1.938  1.00  0.00     0.005 C 
ENDBRANCH  14  17
ENDBRANCH  10  11
ENDBRANCH   4  10
TORSDOF 4
