REMARK SMILES [SH2]=c1nc[nH]c2c1ncn2C1CCCC1
REMARK SMILES IDX 5 1 4 2 3 3 2 4 7 5 8 6 9 7 10 8 6 9 11 11 12 12 15 13 13 14
REMARK SMILES IDX 14 15 1 16
REMARK H PARENT 5 10 1 17 1 18
ROOT
ATOM      1  N   UNL     1       0.666   1.361   0.457  1.00  0.00    -0.331 N 
ATOM      2  C   UNL     1       1.641   2.265   0.776  1.00  0.00     0.199 A 
ATOM      3  N   UNL     1       2.964   1.917   0.695  1.00  0.00    -0.231 NA
ATOM      4  C   UNL     1       3.352   0.670   0.297  1.00  0.00     0.112 A 
ATOM      5  C   UNL     1       2.351  -0.243  -0.027  1.00  0.00     0.137 A 
ATOM      6  N   UNL     1       2.457  -1.519  -0.443  1.00  0.00    -0.232 NA
ATOM      7  C   UNL     1       1.160  -1.898  -0.599  1.00  0.00     0.202 A 
ATOM      8  N   UNL     1       0.268  -0.917  -0.302  1.00  0.00    -0.314 N 
ATOM      9  C   UNL     1       1.047   0.120   0.060  1.00  0.00     0.141 A 
ATOM     10  H   UNL     1      -0.337   1.636   0.523  1.00  0.00     0.169 HD
ENDROOT
BRANCH   8  11
ATOM     11  C   UNL     1      -1.196  -1.035  -0.365  1.00  0.00     0.090 C 
ATOM     12  C   UNL     1      -1.847  -0.866   1.006  1.00  0.00     0.025 C 
ATOM     13  C   UNL     1      -1.831   0.007  -1.295  1.00  0.00     0.025 C 
ATOM     14  C   UNL     1      -3.180  -0.194   0.732  1.00  0.00     0.002 C 
ATOM     15  C   UNL     1      -2.966   0.658  -0.510  1.00  0.00     0.002 C 
ENDBRANCH   8  11
BRANCH   4  16
ATOM     16  S   UNL     1       4.923   0.305   0.214  1.00  0.00    -0.188 S 
ATOM     17  H   UNL     1       5.003  -1.056  -0.073  1.00  0.00     0.095 HD
ATOM     18  H   UNL     1       5.346   0.392   1.538  1.00  0.00     0.095 HD
ENDBRANCH   4  16
TORSDOF 2
