REMARK SMILES C=C(O)C1=C(O)[C@]2(C)c3c(OC(C)=O)c(C)c(OC(C)=O)c(C(C)=O)c3O[C@H]2CC1=O
REMARK SMILES IDX 4 1 5 2 7 3 8 4 9 5 10 6 15 7 16 8 17 9 22 10 26 11 27 12
REMARK SMILES IDX 28 13 29 14 30 15 31 16 2 17 1 18 3 19 6 21 11 23 12 24
REMARK SMILES IDX 13 25 14 26 23 27 24 28 25 29 18 30 19 31 20 32 21 33
REMARK H PARENT 3 20 6 22
ROOT
ATOM      1  C   UNL     1       3.913  -0.249   0.328  1.00  0.00     0.097 C 
ATOM      2  C   UNL     1       2.676   0.328   0.400  1.00  0.00     0.121 C 
ATOM      3  C   UNL     1       1.565  -0.271  -0.434  1.00  0.00     0.095 C 
ATOM      4  C   UNL     1       1.717   0.193  -1.907  1.00  0.00     0.029 C 
ATOM      5  C   UNL     1       0.119  -0.099  -0.050  1.00  0.00     0.055 A 
ATOM      6  C   UNL     1      -0.620   1.072   0.144  1.00  0.00     0.145 A 
ATOM      7  C   UNL     1      -2.028   0.967   0.287  1.00  0.00     0.036 A 
ATOM      8  C   UNL     1      -2.856   2.175   0.645  1.00  0.00     0.052 C 
ATOM      9  C   UNL     1      -2.668  -0.284   0.086  1.00  0.00     0.152 A 
ATOM     10  C   UNL     1      -1.907  -1.431  -0.264  1.00  0.00     0.103 A 
ATOM     11  C   UNL     1      -0.516  -1.303  -0.297  1.00  0.00     0.142 A 
ATOM     12  O   UNL     1       0.397  -2.304  -0.612  1.00  0.00    -0.487 OA
ATOM     13  C   UNL     1       1.671  -1.799  -0.248  1.00  0.00     0.199 C 
ATOM     14  C   UNL     1       2.914  -2.364  -0.921  1.00  0.00     0.128 C 
ATOM     15  C   UNL     1       4.101  -1.538  -0.444  1.00  0.00     0.173 C 
ATOM     16  O   UNL     1       5.263  -1.938  -0.722  1.00  0.00    -0.294 OA
ENDROOT
BRANCH   1  17
ATOM     17  C   UNL     1       5.083   0.377   0.986  1.00  0.00     0.122 C 
ATOM     18  C   UNL     1       5.891  -0.340   1.771  1.00  0.00     0.059 C 
BRANCH  17  19
ATOM     19  O   UNL     1       5.340   1.732   0.770  1.00  0.00    -0.508 OA
ATOM     20  H   UNL     1       6.128   2.203   1.199  1.00  0.00     0.293 HD
ENDBRANCH  17  19
ENDBRANCH   1  17
BRANCH   2  21
ATOM     21  O   UNL     1       2.414   1.448   1.193  1.00  0.00    -0.510 OA
ATOM     22  H   UNL     1       3.083   1.837   1.845  1.00  0.00     0.293 HD
ENDBRANCH   2  21
BRANCH   6  23
ATOM     23  O   UNL     1       0.042   2.304   0.197  1.00  0.00    -0.426 OA
BRANCH  23  24
ATOM     24  C   UNL     1      -0.206   3.350  -0.698  1.00  0.00     0.308 C 
ATOM     25  C   UNL     1       0.437   4.675  -0.473  1.00  0.00     0.139 C 
ATOM     26  O   UNL     1      -0.972   3.188  -1.687  1.00  0.00    -0.252 OA
ENDBRANCH  23  24
ENDBRANCH   6  23
BRANCH  10  27
ATOM     27  C   UNL     1      -2.528  -2.725  -0.630  1.00  0.00     0.167 C 
ATOM     28  C   UNL     1      -3.737  -2.798  -1.512  1.00  0.00     0.094 C 
ATOM     29  O   UNL     1      -2.014  -3.799  -0.216  1.00  0.00    -0.294 OA
ENDBRANCH  10  27
BRANCH   9  30
ATOM     30  O   UNL     1      -4.059  -0.362   0.242  1.00  0.00    -0.425 OA
BRANCH  30  31
ATOM     31  C   UNL     1      -4.679  -1.187   1.186  1.00  0.00     0.308 C 
ATOM     32  C   UNL     1      -6.166  -1.279   1.216  1.00  0.00     0.139 C 
ATOM     33  O   UNL     1      -3.997  -1.808   2.047  1.00  0.00    -0.252 OA
ENDBRANCH  30  31
ENDBRANCH   9  30
TORSDOF 8
