REMARK SMILES Cc1nc(NCc2ccccc2)c2cc[nH]c2n1
REMARK SMILES IDX 5 1 4 3 2 4 3 5 18 6 17 7 13 8 16 9 14 10 15 11 1 12 6 14
REMARK SMILES IDX 7 15 8 16 12 17 9 18 11 19 10 20
REMARK H PARENT 5 2 16 13
ROOT
ATOM      1  N   UNL     1       0.198  -0.178   0.160  1.00  0.00    -0.365 N 
ATOM      2  H   UNL     1       0.403  -1.148  -0.172  1.00  0.00     0.162 HD
ENDROOT
BRANCH   1   3
ATOM      3  C   UNL     1      -1.165   0.263   0.230  1.00  0.00     0.139 A 
ATOM      4  C   UNL     1      -2.769   1.966   0.729  1.00  0.00     0.130 A 
ATOM      5  N   UNL     1      -1.473   1.524   0.660  1.00  0.00    -0.216 NA
ATOM      6  N   UNL     1      -3.799   1.136   0.385  1.00  0.00    -0.215 NA
ATOM      7  C   UNL     1      -3.504  -0.114  -0.044  1.00  0.00     0.143 A 
ATOM      8  C   UNL     1      -2.223  -0.569  -0.131  1.00  0.00     0.061 A 
ATOM      9  N   UNL     1      -4.386  -1.050  -0.423  1.00  0.00    -0.346 N 
ATOM     10  C   UNL     1      -2.283  -1.868  -0.593  1.00  0.00     0.033 A 
ATOM     11  C   UNL     1      -3.642  -2.129  -0.762  1.00  0.00     0.085 A 
ATOM     12  C   UNL     1      -3.059   3.337   1.241  1.00  0.00     0.090 C 
ATOM     13  H   UNL     1      -5.426  -0.967  -0.451  1.00  0.00     0.167 HD
ENDBRANCH   1   3
BRANCH   1  14
ATOM     14  C   UNL     1       1.303   0.701   0.543  1.00  0.00     0.150 C 
BRANCH  14  15
ATOM     15  C   UNL     1       2.622  -0.003   0.377  1.00  0.00    -0.029 A 
ATOM     16  C   UNL     1       3.155  -0.767   1.429  1.00  0.00     0.005 A 
ATOM     17  C   UNL     1       3.300   0.043  -0.853  1.00  0.00     0.005 A 
ATOM     18  C   UNL     1       4.363  -1.451   1.260  1.00  0.00     0.000 A 
ATOM     19  C   UNL     1       4.508  -0.642  -1.017  1.00  0.00     0.000 A 
ATOM     20  C   UNL     1       5.040  -1.387   0.039  1.00  0.00     0.000 A 
ENDBRANCH  14  15
ENDBRANCH   1  14
TORSDOF 3
