REMARK SMILES Cc1nc(=NCc2ccccc2)c2cc[nH]c2[nH]1
REMARK SMILES IDX 5 1 4 2 18 3 2 4 17 5 3 6 16 7 13 8 15 9 14 10 1 12 6 14
REMARK SMILES IDX 7 15 8 16 12 17 9 18 11 19 10 20
REMARK H PARENT 18 11 16 13
ROOT
ATOM      1  N   UNL     1       0.332  -0.004   0.131  1.00  0.00    -0.261 NA
ENDROOT
BRANCH   1   2
ATOM      2  C   UNL     1      -0.945   0.125   0.332  1.00  0.00     0.160 A 
ATOM      3  N   UNL     1      -3.675   0.416   0.756  1.00  0.00    -0.330 N 
ATOM      4  C   UNL     1      -2.952  -0.499   1.475  1.00  0.00     0.106 A 
ATOM      5  C   UNL     1      -3.027   1.169  -0.169  1.00  0.00     0.119 A 
ATOM      6  N   UNL     1      -1.603  -0.632   1.263  1.00  0.00    -0.216 NA
ATOM      7  N   UNL     1      -3.574   2.105  -0.959  1.00  0.00    -0.348 N 
ATOM      8  C   UNL     1      -1.691   1.044  -0.395  1.00  0.00     0.061 A 
ATOM      9  C   UNL     1      -2.553   2.585  -1.707  1.00  0.00     0.085 A 
ATOM     10  C   UNL     1      -1.357   1.946  -1.384  1.00  0.00     0.033 A 
ATOM     11  H   UNL     1      -4.701   0.537   0.912  1.00  0.00     0.169 HD
ATOM     12  C   UNL     1      -3.624  -1.334   2.517  1.00  0.00     0.087 C 
ATOM     13  H   UNL     1      -4.574   2.402  -0.992  1.00  0.00     0.167 HD
ENDBRANCH   1   2
BRANCH   1  14
ATOM     14  C   UNL     1       1.180  -0.945   0.856  1.00  0.00     0.180 C 
BRANCH  14  15
ATOM     15  C   UNL     1       2.592  -0.820   0.364  1.00  0.00    -0.027 A 
ATOM     16  C   UNL     1       3.032  -1.582  -0.731  1.00  0.00     0.005 A 
ATOM     17  C   UNL     1       3.468   0.108   0.953  1.00  0.00     0.005 A 
ATOM     18  C   UNL     1       4.337  -1.438  -1.211  1.00  0.00     0.000 A 
ATOM     19  C   UNL     1       4.773   0.249   0.470  1.00  0.00     0.000 A 
ATOM     20  C   UNL     1       5.208  -0.525  -0.609  1.00  0.00     0.000 A 
ENDBRANCH  14  15
ENDBRANCH   1  14
TORSDOF 3
