REMARK SMILES C=c1ccc2nc(-c3ccccc3)cc(=C(O)OCC)c2c1
REMARK SMILES IDX 16 1 17 2 18 4 19 5 20 6 15 7 14 8 21 9 7 10 22 11 5 12 6 13
REMARK SMILES IDX 2 14 4 15 3 16 1 17 8 18 9 19 13 20 10 21 12 22 11 23
REMARK H PARENT 17 3
ROOT
ATOM      1  C   UNL     1      -2.043   0.515   0.553  1.00  0.00     0.284 C 
ENDROOT
BRANCH   1   2
ATOM      2  O   UNL     1      -3.206  -0.152   0.944  1.00  0.00    -0.481 OA
ATOM      3  H   UNL     1      -4.034   0.328   1.271  1.00  0.00     0.297 HD
ENDBRANCH   1   2
BRANCH   1   4
ATOM      4  O   UNL     1      -1.984   1.915   0.657  1.00  0.00    -0.465 OA
BRANCH   4   5
ATOM      5  C   UNL     1      -3.061   2.732   1.105  1.00  0.00     0.229 C 
ATOM      6  C   UNL     1      -2.636   4.191   1.073  1.00  0.00     0.049 C 
ENDBRANCH   4   5
ENDBRANCH   1   4
BRANCH   1   7
ATOM      7  C   UNL     1      -0.941  -0.171   0.139  1.00  0.00     0.066 A 
ATOM      8  C   UNL     1       0.287   0.530   0.069  1.00  0.00     0.045 A 
ATOM      9  C   UNL     1      -0.923  -1.577  -0.156  1.00  0.00     0.015 A 
ATOM     10  C   UNL     1       1.495  -0.145  -0.152  1.00  0.00     0.072 A 
ATOM     11  C   UNL     1      -2.085  -2.362  -0.374  1.00  0.00     0.018 A 
ATOM     12  C   UNL     1       0.336  -2.215  -0.316  1.00  0.00     0.072 A 
ATOM     13  N   UNL     1       1.481  -1.491  -0.304  1.00  0.00    -0.248 NA
ATOM     14  C   UNL     1      -1.996  -3.748  -0.598  1.00  0.00    -0.032 A 
ATOM     15  C   UNL     1       0.418  -3.593  -0.530  1.00  0.00     0.029 A 
ATOM     16  C   UNL     1      -0.737  -4.360  -0.650  1.00  0.00     0.010 A 
ATOM     17  C   UNL     1      -3.104  -4.479  -0.776  1.00  0.00     0.017 C 
BRANCH  10  18
ATOM     18  C   UNL     1       2.795   0.573  -0.179  1.00  0.00     0.000 A 
ATOM     19  C   UNL     1       3.967  -0.084   0.244  1.00  0.00     0.010 A 
ATOM     20  C   UNL     1       2.893   1.898  -0.649  1.00  0.00     0.010 A 
ATOM     21  C   UNL     1       5.199   0.576   0.218  1.00  0.00     0.001 A 
ATOM     22  C   UNL     1       4.128   2.552  -0.674  1.00  0.00     0.001 A 
ATOM     23  C   UNL     1       5.280   1.893  -0.239  1.00  0.00     0.000 A 
ENDBRANCH  10  18
ENDBRANCH   1   7
TORSDOF 5
