REMARK SMILES C=C(O)CC(=O)Nc1ccc(OC)cc1OC
REMARK SMILES IDX 5 1 6 2 7 3 4 5 2 6 1 7 3 8 8 10 9 11 15 12 10 13 14 14
REMARK SMILES IDX 11 15 16 16 17 17 12 18 13 19
REMARK H PARENT 7 4 3 9
ROOT
ATOM      1  C   UNL     1       1.921  -0.540  -1.295  1.00  0.00     0.232 C 
ATOM      2  O   UNL     1       1.997   0.706  -1.474  1.00  0.00    -0.274 OA
ATOM      3  N   UNL     1       0.667  -1.153  -0.961  1.00  0.00    -0.323 N 
ATOM      4  H   UNL     1       0.564  -2.182  -1.112  1.00  0.00     0.170 HD
ENDROOT
BRANCH   1   5
ATOM      5  C   UNL     1       3.156  -1.378  -1.412  1.00  0.00     0.174 C 
BRANCH   5   6
ATOM      6  C   UNL     1       3.737  -1.620  -0.047  1.00  0.00     0.094 C 
ATOM      7  C   UNL     1       3.409  -2.704   0.654  1.00  0.00     0.054 C 
BRANCH   6   8
ATOM      8  O   UNL     1       4.603  -0.685   0.515  1.00  0.00    -0.512 OA
ATOM      9  H   UNL     1       4.856   0.161   0.019  1.00  0.00     0.293 HD
ENDBRANCH   6   8
ENDBRANCH   5   6
ENDBRANCH   1   5
BRANCH   3  10
ATOM     10  C   UNL     1      -0.498  -0.402  -0.588  1.00  0.00     0.084 A 
ATOM     11  C   UNL     1      -1.726  -0.711  -1.187  1.00  0.00     0.034 A 
ATOM     12  C   UNL     1      -0.437   0.596   0.406  1.00  0.00     0.146 A 
ATOM     13  C   UNL     1      -2.881  -0.005  -0.846  1.00  0.00     0.049 A 
ATOM     14  C   UNL     1      -1.606   1.309   0.738  1.00  0.00     0.095 A 
ATOM     15  C   UNL     1      -2.826   1.018   0.117  1.00  0.00     0.122 A 
BRANCH  12  16
ATOM     16  O   UNL     1       0.784   0.834   1.058  1.00  0.00    -0.494 OA
ATOM     17  C   UNL     1       0.983   1.809   2.076  1.00  0.00     0.278 C 
ENDBRANCH  12  16
BRANCH  15  18
ATOM     18  O   UNL     1      -3.957   1.760   0.490  1.00  0.00    -0.497 OA
ATOM     19  C   UNL     1      -5.258   1.572  -0.056  1.00  0.00     0.278 C 
ENDBRANCH  15  18
ENDBRANCH   3  10
TORSDOF 6
