REMARK SMILES CC[C@@]1(C(=O)OC)CCc2c(cc(OC)c3ccccc23)C1=O
REMARK SMILES IDX 3 1 8 2 9 3 10 4 11 5 12 6 13 7 16 8 17 9 18 10 19 11 20 12
REMARK SMILES IDX 21 13 22 14 23 15 2 16 1 17 4 18 5 19 6 20 7 21 14 22 15 23
REMARK H PARENT
ROOT
ATOM      1  C   UNL     1      -1.955  -0.771   0.064  1.00  0.00     0.131 C 
ATOM      2  C   UNL     1      -1.950   0.768   0.250  1.00  0.00     0.032 C 
ATOM      3  C   UNL     1      -0.680   1.281   0.940  1.00  0.00     0.038 C 
ATOM      4  C   UNL     1       0.598   0.764   0.298  1.00  0.00    -0.029 A 
ATOM      5  C   UNL     1       0.558  -0.385  -0.529  1.00  0.00     0.026 A 
ATOM      6  C   UNL     1       1.726  -0.827  -1.168  1.00  0.00     0.059 A 
ATOM      7  C   UNL     1       2.952  -0.173  -0.979  1.00  0.00     0.127 A 
ATOM      8  C   UNL     1       3.019   0.932  -0.111  1.00  0.00     0.024 A 
ATOM      9  C   UNL     1       4.250   1.579   0.118  1.00  0.00     0.012 A 
ATOM     10  C   UNL     1       4.333   2.655   0.999  1.00  0.00     0.001 A 
ATOM     11  C   UNL     1       3.198   3.099   1.669  1.00  0.00     0.001 A 
ATOM     12  C   UNL     1       1.967   2.478   1.454  1.00  0.00     0.009 A 
ATOM     13  C   UNL     1       1.847   1.397   0.549  1.00  0.00    -0.011 A 
ATOM     14  C   UNL     1      -0.711  -1.142  -0.719  1.00  0.00     0.180 C 
ATOM     15  O   UNL     1      -0.728  -2.153  -1.477  1.00  0.00    -0.293 OA
ENDROOT
BRANCH   1  16
ATOM     16  C   UNL     1      -1.910  -1.528   1.427  1.00  0.00     0.024 C 
ATOM     17  C   UNL     1      -3.071  -1.202   2.373  1.00  0.00     0.005 C 
ENDBRANCH   1  16
BRANCH   1  18
ATOM     18  C   UNL     1      -3.192  -1.186  -0.726  1.00  0.00     0.319 C 
ATOM     19  O   UNL     1      -3.550  -2.397  -0.743  1.00  0.00    -0.251 OA
BRANCH  18  20
ATOM     20  O   UNL     1      -3.901  -0.241  -1.478  1.00  0.00    -0.468 OA
ATOM     21  C   UNL     1      -5.050  -0.578  -2.247  1.00  0.00     0.282 C 
ENDBRANCH  18  20
ENDBRANCH   1  18
BRANCH   7  22
ATOM     22  O   UNL     1       4.122  -0.605  -1.630  1.00  0.00    -0.496 OA
ATOM     23  C   UNL     1       4.195  -1.707  -2.530  1.00  0.00     0.278 C 
ENDBRANCH   7  22
TORSDOF 4
