REMARK SMILES Cc1cc(N2CCOCC2)nc(N2CCOCC2)n1
REMARK SMILES IDX 1 1 2 2 3 3 4 4 11 5 12 6 19 7 5 8 6 9 10 10 7 11 9 12 8 13
REMARK SMILES IDX 13 14 14 15 18 16 15 17 17 18 16 19
REMARK H PARENT
ROOT
ATOM      1  C   UNL     1       1.110  -4.185   1.919  1.00  0.00     0.067 C 
ATOM      2  C   UNL     1       1.381  -2.724   2.092  1.00  0.00     0.045 A 
ATOM      3  C   UNL     1       0.998  -2.067   3.265  1.00  0.00     0.070 A 
ATOM      4  C   UNL     1       1.284  -0.699   3.397  1.00  0.00     0.134 A 
ATOM      5  N   UNL     1       1.936  -0.064   2.385  1.00  0.00    -0.196 NA
ATOM      6  C   UNL     1       2.311  -0.712   1.249  1.00  0.00     0.227 A 
ATOM      7  N   UNL     1       2.030  -2.037   1.116  1.00  0.00    -0.218 NA
ENDROOT
BRANCH   4   8
ATOM      8  N   UNL     1       0.913   0.042   4.581  1.00  0.00    -0.352 N 
ATOM      9  C   UNL     1      -0.143  -0.444   5.479  1.00  0.00     0.146 C 
ATOM     10  C   UNL     1       1.803   1.103   5.073  1.00  0.00     0.146 C 
ATOM     11  C   UNL     1      -0.777   0.725   6.240  1.00  0.00     0.181 C 
ATOM     12  C   UNL     1       1.004   2.144   5.861  1.00  0.00     0.181 C 
ATOM     13  O   UNL     1       0.214   1.523   6.855  1.00  0.00    -0.378 OA
ENDBRANCH   4   8
BRANCH   6  14
ATOM     14  N   UNL     1       3.002  -0.003   0.199  1.00  0.00    -0.336 N 
ATOM     15  C   UNL     1       3.225  -0.655  -1.099  1.00  0.00     0.148 C 
ATOM     16  C   UNL     1       3.144   1.458   0.276  1.00  0.00     0.148 C 
ATOM     17  C   UNL     1       4.401  -0.004  -1.833  1.00  0.00     0.181 C 
ATOM     18  C   UNL     1       4.327   1.928  -0.575  1.00  0.00     0.181 C 
ATOM     19  O   UNL     1       4.247   1.400  -1.883  1.00  0.00    -0.378 OA
ENDBRANCH   6  14
TORSDOF 2
