REMARK SMILES Cc1nc2ccccc2c(N)c1-c1cc(C)c2c(C)nc3ccccc3c2n1
REMARK SMILES IDX 1 1 2 2 3 3 4 4 5 5 6 6 7 7 8 8 9 9 10 10 12 11 13 12 14 13
REMARK SMILES IDX 28 14 15 15 27 16 17 17 26 18 18 19 25 20 21 21 20 22 24 23
REMARK SMILES IDX 22 24 23 25 16 26 19 27 11 28
REMARK H PARENT 11 29 11 30
ROOT
ATOM      1  C   UNL     1       1.025  -0.095   2.826  1.00  0.00     0.067 C 
ATOM      2  C   UNL     1       2.056  -0.067   1.732  1.00  0.00     0.049 A 
ATOM      3  N   UNL     1       3.355  -0.262   2.072  1.00  0.00    -0.252 NA
ATOM      4  C   UNL     1       4.358  -0.254   1.161  1.00  0.00     0.073 A 
ATOM      5  C   UNL     1       5.673  -0.468   1.589  1.00  0.00     0.029 A 
ATOM      6  C   UNL     1       6.718  -0.489   0.664  1.00  0.00     0.002 A 
ATOM      7  C   UNL     1       6.453  -0.303  -0.692  1.00  0.00     0.001 A 
ATOM      8  C   UNL     1       5.144  -0.086  -1.133  1.00  0.00     0.012 A 
ATOM      9  C   UNL     1       4.075  -0.042  -0.210  1.00  0.00     0.024 A 
ATOM     10  C   UNL     1       2.730   0.176  -0.603  1.00  0.00     0.052 A 
ATOM     11  C   UNL     1       1.709   0.159   0.381  1.00  0.00     0.045 A 
ENDROOT
BRANCH  11  12
ATOM     12  C   UNL     1       0.297   0.414   0.013  1.00  0.00     0.075 A 
ATOM     13  C   UNL     1      -0.087   1.632  -0.538  1.00  0.00     0.033 A 
ATOM     14  N   UNL     1      -0.637  -0.532   0.254  1.00  0.00    -0.247 NA
ATOM     15  C   UNL     1      -1.432   1.878  -0.866  1.00  0.00    -0.038 A 
ATOM     16  C   UNL     1      -1.954  -0.364  -0.037  1.00  0.00     0.082 A 
ATOM     17  C   UNL     1      -2.412   0.852  -0.632  1.00  0.00     0.025 A 
ATOM     18  C   UNL     1      -2.851  -1.407   0.262  1.00  0.00     0.027 A 
ATOM     19  C   UNL     1      -3.812   0.940  -0.942  1.00  0.00     0.048 A 
ATOM     20  C   UNL     1      -2.430  -2.612   0.864  1.00  0.00     0.012 A 
ATOM     21  C   UNL     1      -4.212  -1.240  -0.046  1.00  0.00     0.073 A 
ATOM     22  N   UNL     1      -4.634  -0.097  -0.630  1.00  0.00    -0.252 NA
ATOM     23  C   UNL     1      -3.355  -3.620   1.147  1.00  0.00     0.001 A 
ATOM     24  C   UNL     1      -5.133  -2.254   0.242  1.00  0.00     0.029 A 
ATOM     25  C   UNL     1      -4.705  -3.442   0.837  1.00  0.00     0.002 A 
ATOM     26  C   UNL     1      -1.732   3.251  -1.422  1.00  0.00     0.045 C 
ATOM     27  C   UNL     1      -4.482   2.096  -1.631  1.00  0.00     0.067 C 
ENDBRANCH  11  12
BRANCH  10  28
ATOM     28  N   UNL     1       2.388   0.393  -1.984  1.00  0.00    -0.398 N 
ATOM     29  H   UNL     1       3.052   0.827  -2.659  1.00  0.00     0.156 HD
ATOM     30  H   UNL     1       1.430   0.189  -2.343  1.00  0.00     0.156 HD
ENDBRANCH  10  28
TORSDOF 2
