REMARK SMILES [NH3+]CC(=O)Nc1ccc(Cl)cc1C(=O)c1ccc[nH]1
REMARK SMILES IDX 6 1 7 2 12 3 8 4 11 5 9 6 10 7 5 8 3 9 4 10 2 12 1 13 13 17
REMARK SMILES IDX 14 18 15 19 16 20 19 21 17 22 18 23
REMARK H PARENT 5 11 1 14 1 15 1 16 19 24
ROOT
ATOM      1  C   UNL     1      -0.848   1.007   0.323  1.00  0.00     0.052 A 
ATOM      2  C   UNL     1      -1.410   2.171   0.878  1.00  0.00     0.028 A 
ATOM      3  C   UNL     1       0.498   1.029  -0.114  1.00  0.00     0.049 A 
ATOM      4  C   UNL     1      -0.661   3.345   0.976  1.00  0.00     0.023 A 
ATOM      5  C   UNL     1       1.237   2.221  -0.016  1.00  0.00     0.035 A 
ATOM      6  C   UNL     1       0.660   3.372   0.528  1.00  0.00     0.041 A 
ATOM      7  Cl  UNL     1       1.597   4.850   0.647  1.00  0.00    -0.084 Cl
ENDROOT
BRANCH   1   8
ATOM      8  N   UNL     1      -1.610  -0.212   0.285  1.00  0.00    -0.320 N 
ATOM      9  C   UNL     1      -2.989  -0.271  -0.110  1.00  0.00     0.279 C 
ATOM     10  O   UNL     1      -3.559   0.742  -0.599  1.00  0.00    -0.268 OA
ATOM     11  H   UNL     1      -1.122  -1.112   0.496  1.00  0.00     0.170 HD
BRANCH   9  12
ATOM     12  C   UNL     1      -3.738  -1.568  -0.025  1.00  0.00     0.360 C 
BRANCH  12  13
ATOM     13  N   UNL     1      -3.486  -2.387  -1.209  1.00  0.00    -0.350 N 
ATOM     14  H   UNL     1      -4.020  -3.282  -1.126  1.00  0.00     0.344 HD
ATOM     15  H   UNL     1      -2.466  -2.607  -1.284  1.00  0.00     0.344 HD
ATOM     16  H   UNL     1      -3.802  -1.881  -2.068  1.00  0.00     0.344 HD
ENDBRANCH  12  13
ENDBRANCH   9  12
ENDBRANCH   1   8
BRANCH   3  17
ATOM     17  C   UNL     1       1.121  -0.159  -0.742  1.00  0.00     0.211 C 
ATOM     18  O   UNL     1       0.482  -0.794  -1.625  1.00  0.00    -0.287 OA
BRANCH  17  19
ATOM     19  C   UNL     1       2.476  -0.614  -0.370  1.00  0.00     0.087 A 
ATOM     20  C   UNL     1       3.224  -1.546  -1.066  1.00  0.00     0.032 A 
ATOM     21  N   UNL     1       3.147  -0.209   0.727  1.00  0.00    -0.359 N 
ATOM     22  C   UNL     1       4.402  -1.701  -0.364  1.00  0.00     0.020 A 
ATOM     23  C   UNL     1       4.320  -0.866   0.732  1.00  0.00     0.083 A 
ATOM     24  H   UNL     1       2.821   0.464   1.456  1.00  0.00     0.166 HD
ENDBRANCH  17  19
ENDBRANCH   3  17
TORSDOF 5
