REMARK SMILES Cc1cc(NC(=O)Nc2cccc3ccccc23)no1
REMARK SMILES IDX 1 1 2 2 3 3 4 4 19 5 20 6 5 7 6 8 8 9 7 11 9 13 10 14 18 15
REMARK SMILES IDX 11 16 17 17 13 18 12 19 16 20 14 21 15 22
REMARK H PARENT 5 10 8 12
ROOT
ATOM      1  C   UNL     1       6.273  -1.480  -0.178  1.00  0.00     0.091 C 
ATOM      2  C   UNL     1       5.300  -0.350  -0.151  1.00  0.00     0.135 A 
ATOM      3  C   UNL     1       3.926  -0.460  -0.162  1.00  0.00     0.095 A 
ATOM      4  C   UNL     1       3.508   0.858  -0.097  1.00  0.00     0.177 A 
ATOM      5  N   UNL     1       4.576   1.677  -0.033  1.00  0.00    -0.062 NA
ATOM      6  O   UNL     1       5.632   0.917  -0.071  1.00  0.00    -0.360 OA
ENDROOT
BRANCH   4   7
ATOM      7  N   UNL     1       2.156   1.336  -0.032  1.00  0.00    -0.289 N 
ATOM      8  C   UNL     1       0.994   0.562  -0.368  1.00  0.00     0.324 C 
ATOM      9  N   UNL     1      -0.310   1.084  -0.076  1.00  0.00    -0.307 N 
ATOM     10  H   UNL     1       2.013   2.333   0.246  1.00  0.00     0.173 HD
ATOM     11  O   UNL     1       1.113  -0.565  -0.920  1.00  0.00    -0.248 OA
ATOM     12  H   UNL     1      -0.375   1.951   0.502  1.00  0.00     0.171 HD
BRANCH   9  13
ATOM     13  C   UNL     1      -1.526   0.458  -0.522  1.00  0.00     0.050 A 
ATOM     14  C   UNL     1      -1.649   0.064  -1.866  1.00  0.00     0.027 A 
ATOM     15  C   UNL     1      -2.626   0.285   0.355  1.00  0.00     0.005 A 
ATOM     16  C   UNL     1      -2.834  -0.498  -2.339  1.00  0.00     0.003 A 
ATOM     17  C   UNL     1      -2.551   0.639   1.718  1.00  0.00     0.011 A 
ATOM     18  C   UNL     1      -3.831  -0.283  -0.140  1.00  0.00    -0.016 A 
ATOM     19  C   UNL     1      -3.922  -0.670  -1.484  1.00  0.00     0.009 A 
ATOM     20  C   UNL     1      -3.652   0.455   2.559  1.00  0.00     0.001 A 
ATOM     21  C   UNL     1      -4.927  -0.460   0.719  1.00  0.00     0.009 A 
ATOM     22  C   UNL     1      -4.836  -0.090   2.061  1.00  0.00     0.001 A 
ENDBRANCH   9  13
ENDBRANCH   4   7
TORSDOF 2
