REMARK SMILES Cc1ccncc1C(N)=O
REMARK SMILES IDX 1 1 2 2 3 3 4 4 5 5 6 6 7 7 8 8 9 9 10 10
REMARK H PARENT 9 11 9 12
ROOT
ATOM      1  C   UNL     1      -1.060  -1.778  -0.489  1.00  0.00     0.045 C 
ATOM      2  C   UNL     1      -0.860  -0.332  -0.118  1.00  0.00    -0.035 A 
ATOM      3  C   UNL     1      -1.970   0.526  -0.119  1.00  0.00     0.024 A 
ATOM      4  C   UNL     1      -1.807   1.873   0.199  1.00  0.00     0.111 A 
ATOM      5  N   UNL     1      -0.580   2.354   0.517  1.00  0.00    -0.264 NA
ATOM      6  C   UNL     1       0.518   1.554   0.540  1.00  0.00     0.125 A 
ATOM      7  C   UNL     1       0.414   0.186   0.231  1.00  0.00     0.060 A 
ENDROOT
BRANCH   7   8
ATOM      8  C   UNL     1       1.630  -0.663   0.299  1.00  0.00     0.250 C 
ATOM      9  N   UNL     1       2.901  -0.153  -0.110  1.00  0.00    -0.366 N 
ATOM     10  O   UNL     1       1.556  -1.842   0.736  1.00  0.00    -0.269 OA
ATOM     11  H   UNL     1       3.757  -0.744  -0.016  1.00  0.00     0.159 HD
ATOM     12  H   UNL     1       2.990   0.785  -0.558  1.00  0.00     0.159 HD
ENDBRANCH   7   8
TORSDOF 1
