REMARK SMILES CC(C)Oc1ccc(C(=O)[O-])cc1
REMARK SMILES IDX 8 1 7 2 12 3 6 4 13 5 5 6 9 7 10 8 11 9 4 10 2 11 1 12 3 13
REMARK H PARENT
ROOT
ATOM      1  C   UNL     1       2.914  -0.175   0.556  1.00  0.00    -0.003 A 
ATOM      2  C   UNL     1       2.039  -1.151   0.048  1.00  0.00     0.014 A 
ATOM      3  C   UNL     1       2.433   1.128   0.762  1.00  0.00     0.014 A 
ATOM      4  C   UNL     1       0.710  -0.830  -0.246  1.00  0.00     0.047 A 
ATOM      5  C   UNL     1       1.105   1.447   0.468  1.00  0.00     0.047 A 
ATOM      6  C   UNL     1       0.231   0.477  -0.034  1.00  0.00     0.119 A 
ENDROOT
BRANCH   1   7
ATOM      7  C   UNL     1       4.321  -0.511   0.869  1.00  0.00     0.071 C 
ATOM      8  O   UNL     1       4.757  -1.679   0.685  1.00  0.00    -0.545 OA
ATOM      9  O   UNL     1       5.182   0.458   1.370  1.00  0.00    -0.545 OA
ENDBRANCH   1   7
BRANCH   6  10
ATOM     10  O   UNL     1      -1.092   0.860  -0.312  1.00  0.00    -0.491 OA
BRANCH  10  11
ATOM     11  C   UNL     1      -2.146  -0.012  -0.728  1.00  0.00     0.167 C 
ATOM     12  C   UNL     1      -3.283   0.833  -1.300  1.00  0.00     0.052 C 
ATOM     13  C   UNL     1      -2.648  -0.842   0.458  1.00  0.00     0.052 C 
ENDBRANCH  10  11
ENDBRANCH   6  10
TORSDOF 3
