REMARK SMILES O=C(Nc1ccc(Br)c2ccccc12)c1ccc2ccccc2c1O
REMARK SMILES IDX 15 1 16 2 17 3 18 4 19 5 20 6 21 7 22 8 23 9 24 10 2 11 3 12
REMARK SMILES IDX 1 13 4 15 5 16 14 17 6 18 13 19 9 20 7 21 12 22 10 23 11 24
REMARK SMILES IDX 8 25 25 26
REMARK H PARENT 3 14 25 27
ROOT
ATOM      1  C   UNL     1       1.512   0.730  -0.981  1.00  0.00     0.082 A 
ATOM      2  C   UNL     1       2.352   1.138  -2.026  1.00  0.00     0.018 A 
ATOM      3  C   UNL     1       3.726   0.929  -1.956  1.00  0.00     0.010 A 
ATOM      4  C   UNL     1       4.291   0.306  -0.839  1.00  0.00    -0.015 A 
ATOM      5  C   UNL     1       5.678   0.089  -0.792  1.00  0.00     0.009 A 
ATOM      6  C   UNL     1       6.255  -0.536   0.312  1.00  0.00     0.001 A 
ATOM      7  C   UNL     1       5.456  -0.952   1.375  1.00  0.00     0.001 A 
ATOM      8  C   UNL     1       4.075  -0.743   1.347  1.00  0.00     0.012 A 
ATOM      9  C   UNL     1       3.465  -0.104   0.243  1.00  0.00     0.024 A 
ATOM     10  C   UNL     1       2.065   0.137   0.176  1.00  0.00     0.136 A 
ENDROOT
BRANCH   1  11
ATOM     11  C   UNL     1       0.057   0.963  -1.108  1.00  0.00     0.259 C 
ATOM     12  N   UNL     1      -0.887  -0.054  -0.732  1.00  0.00    -0.321 N 
ATOM     13  O   UNL     1      -0.350   2.066  -1.566  1.00  0.00    -0.269 OA
ATOM     14  H   UNL     1      -0.530  -0.975  -0.391  1.00  0.00     0.170 HD
BRANCH  12  15
ATOM     15  C   UNL     1      -2.310   0.122  -0.829  1.00  0.00     0.049 A 
ATOM     16  C   UNL     1      -2.869   0.565  -2.036  1.00  0.00     0.028 A 
ATOM     17  C   UNL     1      -3.162  -0.205   0.254  1.00  0.00     0.006 A 
ATOM     18  C   UNL     1      -4.249   0.699  -2.175  1.00  0.00     0.018 A 
ATOM     19  C   UNL     1      -2.638  -0.640   1.488  1.00  0.00     0.011 A 
ATOM     20  C   UNL     1      -4.572  -0.073   0.107  1.00  0.00    -0.002 A 
ATOM     21  C   UNL     1      -5.105   0.385  -1.119  1.00  0.00     0.025 A 
ATOM     22  C   UNL     1      -3.488  -0.955   2.549  1.00  0.00     0.001 A 
ATOM     23  C   UNL     1      -5.410  -0.399   1.192  1.00  0.00     0.010 A 
ATOM     24  C   UNL     1      -4.868  -0.838   2.401  1.00  0.00     0.001 A 
ATOM     25  Br  UNL     1      -6.991   0.601  -1.421  1.00  0.00    -0.050 Br
ENDBRANCH  12  15
ENDBRANCH   1  11
BRANCH  10  26
ATOM     26  O   UNL     1       1.203  -0.161   1.239  1.00  0.00    -0.506 OA
ATOM     27  H   UNL     1       1.493  -0.516   2.137  1.00  0.00     0.293 HD
ENDBRANCH  10  26
TORSDOF 3
