REMARK SMILES Cc1cccc(Nc2sc(C(=O)c3cc4cc(Cl)ccc4o3)c(N)c2C#N)c1
REMARK SMILES IDX 8 1 9 2 10 3 23 4 25 5 7 6 6 8 2 9 3 10 28 11 4 12 5 13 1 14
REMARK SMILES IDX 26 15 27 16 11 17 12 18 13 19 14 20 22 21 15 22 21 23 16 24
REMARK SMILES IDX 20 25 17 26 19 27 18 28 24 29
REMARK H PARENT 7 7 24 30 24 31
ROOT
ATOM      1  C   UNL     1      -1.045   0.697  -0.287  1.00  0.00     0.114 A 
ATOM      2  S   UNL     1       0.471   0.209   0.238  1.00  0.00    -0.111 S 
ATOM      3  C   UNL     1       0.809  -0.808  -1.065  1.00  0.00     0.105 A 
ATOM      4  C   UNL     1      -0.277  -0.752  -1.952  1.00  0.00     0.074 A 
ATOM      5  C   UNL     1      -1.312   0.101  -1.519  1.00  0.00     0.110 A 
ENDROOT
BRANCH   1   6
ATOM      6  N   UNL     1      -1.850   1.671   0.393  1.00  0.00    -0.346 N 
ATOM      7  H   UNL     1      -1.353   2.439   0.898  1.00  0.00     0.167 HD
BRANCH   6   8
ATOM      8  C   UNL     1      -3.282   1.605   0.491  1.00  0.00     0.039 A 
ATOM      9  C   UNL     1      -5.359   0.328   0.579  1.00  0.00    -0.049 A 
ATOM     10  C   UNL     1      -6.077   1.520   0.754  1.00  0.00     0.003 A 
ATOM     11  C   UNL     1      -3.960   0.373   0.473  1.00  0.00     0.029 A 
ATOM     12  C   UNL     1      -5.405   2.744   0.799  1.00  0.00     0.002 A 
ATOM     13  C   UNL     1      -4.014   2.787   0.672  1.00  0.00     0.026 A 
ATOM     14  C   UNL     1      -6.073  -0.991   0.582  1.00  0.00     0.044 C 
ENDBRANCH   6   8
ENDBRANCH   1   6
BRANCH   5  15
ATOM     15  C   UNL     1      -2.471   0.409  -2.321  1.00  0.00     0.104 C 
ATOM     16  N   UNL     1      -3.401   0.656  -2.964  1.00  0.00    -0.192 NA
ENDBRANCH   5  15
BRANCH   3  17
ATOM     17  C   UNL     1       2.022  -1.647  -1.183  1.00  0.00     0.240 C 
ATOM     18  O   UNL     1       1.971  -2.729  -1.825  1.00  0.00    -0.284 OA
BRANCH  17  19
ATOM     19  C   UNL     1       3.290  -1.260  -0.538  1.00  0.00     0.176 A 
ATOM     20  C   UNL     1       4.445  -2.042  -0.502  1.00  0.00     0.063 A 
ATOM     21  O   UNL     1       3.491  -0.108   0.079  1.00  0.00    -0.453 OA
ATOM     22  C   UNL     1       5.354  -1.274   0.187  1.00  0.00     0.022 A 
ATOM     23  C   UNL     1       4.724  -0.105   0.519  1.00  0.00     0.135 A 
ATOM     24  C   UNL     1       6.679  -1.524   0.539  1.00  0.00     0.032 A 
ATOM     25  C   UNL     1       5.374   0.901   1.229  1.00  0.00     0.049 A 
ATOM     26  C   UNL     1       7.365  -0.525   1.258  1.00  0.00     0.041 A 
ATOM     27  C   UNL     1       6.713   0.683   1.601  1.00  0.00     0.024 A 
ATOM     28  Cl  UNL     1       9.034  -0.782   1.729  1.00  0.00    -0.084 Cl
ENDBRANCH  17  19
ENDBRANCH   3  17
BRANCH   4  29
ATOM     29  N   UNL     1      -0.309  -1.427  -3.217  1.00  0.00    -0.396 N 
ATOM     30  H   UNL     1       0.535  -1.896  -3.609  1.00  0.00     0.156 HD
ATOM     31  H   UNL     1      -1.166  -1.407  -3.812  1.00  0.00     0.156 HD
ENDBRANCH   4  29
TORSDOF 6
