REMARK SMILES C#CCSc1nnnn1-c1ccc(Br)c(C)c1
REMARK SMILES IDX 4 1 3 2 2 3 1 4 5 5 6 6 9 7 7 8 8 9 10 10 11 11 17 12 12 13
REMARK SMILES IDX 15 14 13 15 16 16 14 17
REMARK H PARENT
ROOT
ATOM      1  S   UNL     1       2.439   0.057   0.753  1.00  0.00    -0.071 SA
ENDROOT
BRANCH   1   2
ATOM      2  C   UNL     1       2.956  -0.074  -0.988  1.00  0.00     0.167 C 
BRANCH   2   3
ATOM      3  C   UNL     1       3.417   1.234  -1.454  1.00  0.00    -0.095 C 
ATOM      4  C   UNL     1       3.795   2.312  -1.839  1.00  0.00     0.005 C 
ENDBRANCH   2   3
ENDBRANCH   1   2
BRANCH   1   5
ATOM      5  C   UNL     1       1.725  -1.590   0.791  1.00  0.00     0.215 A 
ATOM      6  N   UNL     1       2.457  -2.709   0.946  1.00  0.00    -0.101 NA
ATOM      7  N   UNL     1       0.411  -1.892   0.789  1.00  0.00    -0.187 N 
ATOM      8  N   UNL     1       1.570  -3.691   1.032  1.00  0.00    -0.022 NA
ATOM      9  N   UNL     1       0.342  -3.203   0.948  1.00  0.00    -0.039 NA
BRANCH   7  10
ATOM     10  C   UNL     1      -0.735  -1.022   0.759  1.00  0.00     0.070 A 
ATOM     11  C   UNL     1      -1.858  -1.327   1.542  1.00  0.00     0.030 A 
ATOM     12  C   UNL     1      -0.771   0.109  -0.073  1.00  0.00     0.033 A 
ATOM     13  C   UNL     1      -2.983  -0.501   1.521  1.00  0.00     0.018 A 
ATOM     14  C   UNL     1      -1.898   0.948  -0.100  1.00  0.00    -0.035 A 
ATOM     15  C   UNL     1      -3.010   0.637   0.708  1.00  0.00     0.021 A 
ATOM     16  C   UNL     1      -1.912   2.155  -0.996  1.00  0.00     0.045 C 
ATOM     17  Br  UNL     1      -4.587   1.729   0.723  1.00  0.00    -0.051 Br
ENDBRANCH   7  10
ENDBRANCH   1   5
TORSDOF 4
