REMARK SMILES CCN(CC)c1nc(Cl)nc(Nc2ccc3cc(-c4ccccc4)c(=O)oc3c2)n1
REMARK SMILES IDX 6 1 7 2 8 3 9 4 10 5 11 6 30 7 3 8 2 9 1 10 4 11 5 12 12 13
REMARK SMILES IDX 13 15 14 16 29 17 15 18 28 19 16 20 27 21 17 22 25 23 18 24
REMARK SMILES IDX 26 25 19 26 20 27 24 28 21 29 23 30 22 31
REMARK H PARENT 12 14
ROOT
ATOM      1  C   UNL     1       4.479   0.340  -0.570  1.00  0.00     0.231 A 
ATOM      2  N   UNL     1       4.044   1.489  -1.153  1.00  0.00    -0.182 NA
ATOM      3  C   UNL     1       2.737   1.841  -1.083  1.00  0.00     0.228 A 
ATOM      4  Cl  UNL     1       2.191   3.327  -1.829  1.00  0.00    -0.041 Cl
ATOM      5  N   UNL     1       1.853   1.044  -0.434  1.00  0.00    -0.182 NA
ATOM      6  C   UNL     1       2.272  -0.115   0.138  1.00  0.00     0.233 A 
ATOM      7  N   UNL     1       3.584  -0.456   0.075  1.00  0.00    -0.176 NA
ENDROOT
BRANCH   1   8
ATOM      8  N   UNL     1       5.873  -0.037  -0.643  1.00  0.00    -0.341 N 
BRANCH   8   9
ATOM      9  C   UNL     1       6.827   0.808  -1.379  1.00  0.00     0.116 C 
ATOM     10  C   UNL     1       7.221   2.026  -0.549  1.00  0.00     0.027 C 
ENDBRANCH   8   9
BRANCH   8  11
ATOM     11  C   UNL     1       6.328  -1.302  -0.046  1.00  0.00     0.116 C 
ATOM     12  C   UNL     1       6.461  -1.169   1.468  1.00  0.00     0.027 C 
ENDBRANCH   8  11
ENDBRANCH   1   8
BRANCH   6  13
ATOM     13  N   UNL     1       1.355  -0.955   0.854  1.00  0.00    -0.324 N 
ATOM     14  H   UNL     1       1.760  -1.656   1.516  1.00  0.00     0.170 HD
BRANCH  13  15
ATOM     15  C   UNL     1      -0.075  -0.818   0.802  1.00  0.00     0.045 A 
ATOM     16  C   UNL     1      -0.834  -1.096   1.950  1.00  0.00     0.027 A 
ATOM     17  C   UNL     1      -0.734  -0.471  -0.392  1.00  0.00     0.074 A 
ATOM     18  C   UNL     1      -2.228  -0.990   1.924  1.00  0.00     0.014 A 
ATOM     19  C   UNL     1      -2.128  -0.365  -0.425  1.00  0.00     0.140 A 
ATOM     20  C   UNL     1      -2.879  -0.621   0.740  1.00  0.00     0.018 A 
ATOM     21  O   UNL     1      -2.741  -0.028  -1.555  1.00  0.00    -0.422 OA
ATOM     22  C   UNL     1      -4.270  -0.504   0.677  1.00  0.00     0.028 A 
ATOM     23  C   UNL     1      -4.062   0.092  -1.652  1.00  0.00     0.344 A 
ATOM     24  C   UNL     1      -4.885  -0.134  -0.528  1.00  0.00     0.068 A 
ATOM     25  O   UNL     1      -4.566   0.393  -2.767  1.00  0.00    -0.246 OA
BRANCH  24  26
ATOM     26  C   UNL     1      -6.362   0.001  -0.596  1.00  0.00    -0.011 A 
ATOM     27  C   UNL     1      -6.952   1.140  -1.174  1.00  0.00     0.009 A 
ATOM     28  C   UNL     1      -7.192  -1.002  -0.062  1.00  0.00     0.009 A 
ATOM     29  C   UNL     1      -8.344   1.266  -1.226  1.00  0.00     0.001 A 
ATOM     30  C   UNL     1      -8.583  -0.872  -0.117  1.00  0.00     0.001 A 
ATOM     31  C   UNL     1      -9.159   0.260  -0.699  1.00  0.00     0.000 A 
ENDBRANCH  24  26
ENDBRANCH  13  15
ENDBRANCH   6  13
TORSDOF 6
