REMARK SMILES COC(=O)[C@@]1(C)Cc2cc(OC(C)=O)c(OC(C)=O)cc2N1
REMARK SMILES IDX 5 1 6 2 7 3 8 4 9 5 10 6 15 7 20 8 21 9 22 10 3 12 4 13 2 14
REMARK SMILES IDX 1 15 11 16 12 17 13 18 14 19 16 20 17 21 18 22 19 23
REMARK H PARENT 22 11
ROOT
ATOM      1  C   UNL     1       3.002  -0.520  -1.017  1.00  0.00     0.137 C 
ATOM      2  C   UNL     1       3.995   0.429  -1.705  1.00  0.00     0.048 C 
ATOM      3  C   UNL     1       1.742  -0.774  -1.913  1.00  0.00     0.078 C 
ATOM      4  C   UNL     1       0.622  -0.230  -1.095  1.00  0.00    -0.018 A 
ATOM      5  C   UNL     1      -0.734  -0.178  -1.415  1.00  0.00     0.057 A 
ATOM      6  C   UNL     1      -1.626   0.408  -0.499  1.00  0.00     0.173 A 
ATOM      7  C   UNL     1      -1.142   0.866   0.763  1.00  0.00     0.175 A 
ATOM      8  C   UNL     1       0.237   0.826   1.035  1.00  0.00     0.077 A 
ATOM      9  C   UNL     1       1.089   0.268   0.085  1.00  0.00     0.042 A 
ATOM     10  N   UNL     1       2.488   0.123   0.197  1.00  0.00    -0.369 N 
ATOM     11  H   UNL     1       3.063   0.443   1.009  1.00  0.00     0.161 HD
ENDROOT
BRANCH   1  12
ATOM     12  C   UNL     1       3.680  -1.823  -0.665  1.00  0.00     0.331 C 
ATOM     13  O   UNL     1       4.253  -2.494  -1.568  1.00  0.00    -0.249 OA
BRANCH  12  14
ATOM     14  O   UNL     1       3.649  -2.296   0.652  1.00  0.00    -0.467 OA
ATOM     15  C   UNL     1       4.258  -3.521   1.041  1.00  0.00     0.282 C 
ENDBRANCH  12  14
ENDBRANCH   1  12
BRANCH   6  16
ATOM     16  O   UNL     1      -2.972   0.521  -0.869  1.00  0.00    -0.423 OA
BRANCH  16  17
ATOM     17  C   UNL     1      -3.719   1.699  -0.743  1.00  0.00     0.308 C 
ATOM     18  C   UNL     1      -5.192   1.662  -0.963  1.00  0.00     0.139 C 
ATOM     19  O   UNL     1      -3.153   2.799  -0.496  1.00  0.00    -0.252 OA
ENDBRANCH  16  17
ENDBRANCH   6  16
BRANCH   7  20
ATOM     20  O   UNL     1      -1.997   1.360   1.758  1.00  0.00    -0.423 OA
BRANCH  20  21
ATOM     21  C   UNL     1      -3.166   0.711   2.173  1.00  0.00     0.308 C 
ATOM     22  C   UNL     1      -4.113   1.419   3.080  1.00  0.00     0.139 C 
ATOM     23  O   UNL     1      -3.394  -0.484   1.841  1.00  0.00    -0.252 OA
ENDBRANCH  20  21
ENDBRANCH   7  20
TORSDOF 6
