REMARK SMILES COc1ccc(NC(=O)Nc2ccc(C(C)C)cc2)cc1
REMARK SMILES IDX 7 1 8 2 9 3 10 4 6 7 3 8 4 9 21 10 5 11 20 12 2 13 1 14
REMARK SMILES IDX 11 15 12 16 19 17 13 18 18 19 14 20 15 21 16 22 17 23
REMARK H PARENT 7 5 10 6
ROOT
ATOM      1  N   UNL     1       2.165  -0.476  -1.071  1.00  0.00    -0.308 N 
ATOM      2  C   UNL     1       0.885  -0.290  -0.449  1.00  0.00     0.323 C 
ATOM      3  O   UNL     1       0.797   0.300   0.662  1.00  0.00    -0.248 OA
ATOM      4  N   UNL     1      -0.295  -0.783  -1.102  1.00  0.00    -0.308 N 
ATOM      5  H   UNL     1       2.176  -0.719  -2.088  1.00  0.00     0.171 HD
ATOM      6  H   UNL     1      -0.165  -1.485  -1.866  1.00  0.00     0.171 HD
ENDROOT
BRANCH   1   7
ATOM      7  C   UNL     1       3.424  -0.227  -0.422  1.00  0.00     0.043 A 
ATOM      8  C   UNL     1       5.929   0.219   0.794  1.00  0.00     0.119 A 
ATOM      9  C   UNL     1       5.747   0.474  -0.578  1.00  0.00     0.048 A 
ATOM     10  C   UNL     1       4.855  -0.272   1.544  1.00  0.00     0.048 A 
ATOM     11  C   UNL     1       4.506   0.244  -1.179  1.00  0.00     0.030 A 
ATOM     12  C   UNL     1       3.613  -0.501   0.943  1.00  0.00     0.030 A 
BRANCH   8  13
ATOM     13  O   UNL     1       7.153   0.435   1.444  1.00  0.00    -0.497 OA
ATOM     14  C   UNL     1       8.326   0.929   0.806  1.00  0.00     0.278 C 
ENDBRANCH   8  13
ENDBRANCH   1   7
BRANCH   4  15
ATOM     15  C   UNL     1      -1.637  -0.470  -0.692  1.00  0.00     0.042 A 
ATOM     16  C   UNL     1      -2.646  -1.429  -0.853  1.00  0.00     0.026 A 
ATOM     17  C   UNL     1      -1.974   0.798  -0.189  1.00  0.00     0.026 A 
ATOM     18  C   UNL     1      -3.963  -1.145  -0.482  1.00  0.00     0.006 A 
ATOM     19  C   UNL     1      -3.291   1.085   0.181  1.00  0.00     0.006 A 
ATOM     20  C   UNL     1      -4.300   0.116   0.044  1.00  0.00    -0.045 A 
BRANCH  20  21
ATOM     21  C   UNL     1      -5.725   0.442   0.450  1.00  0.00     0.013 C 
ATOM     22  C   UNL     1      -6.670   0.379  -0.757  1.00  0.00     0.012 C 
ATOM     23  C   UNL     1      -6.205  -0.483   1.575  1.00  0.00     0.012 C 
ENDBRANCH  20  21
ENDBRANCH   4  15
TORSDOF 4
