REMARK SMILES COc1cc(C(=O)NC(=S)Nc2csc(-c3ccc(F)cc3)n2)cc(OC)c1OC
REMARK SMILES IDX 9 1 10 2 8 3 6 4 7 5 5 7 3 8 4 9 28 10 25 11 24 12 2 13 1 14
REMARK SMILES IDX 29 15 30 16 26 17 27 18 11 19 12 21 13 22 23 23 14 24 15 25
REMARK SMILES IDX 16 26 17 27 22 28 18 29 21 30 19 31 20 32
REMARK H PARENT 8 6 11 20
ROOT
ATOM      1  C   UNL     1      -1.091  -0.493  -1.679  1.00  0.00     0.178 C 
ATOM      2  S   UNL     1      -1.931   0.420  -2.753  1.00  0.00    -0.040 S 
ENDROOT
BRANCH   1   3
ATOM      3  N   UNL     1       0.284  -0.166  -1.428  1.00  0.00    -0.299 N 
ATOM      4  C   UNL     1       1.001  -0.593  -0.255  1.00  0.00     0.257 C 
ATOM      5  O   UNL     1       0.419  -1.289   0.622  1.00  0.00    -0.269 OA
ATOM      6  H   UNL     1       0.767   0.443  -2.125  1.00  0.00     0.172 HD
BRANCH   4   7
ATOM      7  C   UNL     1       2.423  -0.225  -0.050  1.00  0.00     0.047 A 
ATOM      8  C   UNL     1       4.620  -0.761   0.866  1.00  0.00     0.165 A 
ATOM      9  C   UNL     1       3.269  -1.089   0.656  1.00  0.00     0.064 A 
ATOM     10  C   UNL     1       5.134   0.450   0.375  1.00  0.00     0.203 A 
ATOM     11  C   UNL     1       4.284   1.341  -0.328  1.00  0.00     0.165 A 
ATOM     12  C   UNL     1       2.934   0.990  -0.528  1.00  0.00     0.064 A 
BRANCH   8  13
ATOM     13  O   UNL     1       5.489  -1.616   1.563  1.00  0.00    -0.493 OA
ATOM     14  C   UNL     1       5.116  -2.870   2.124  1.00  0.00     0.278 C 
ENDBRANCH   8  13
BRANCH  10  15
ATOM     15  O   UNL     1       6.498   0.703   0.624  1.00  0.00    -0.490 OA
ATOM     16  C   UNL     1       7.231   1.861   0.239  1.00  0.00     0.278 C 
ENDBRANCH  10  15
BRANCH  11  17
ATOM     17  O   UNL     1       4.790   2.558  -0.813  1.00  0.00    -0.493 OA
ATOM     18  C   UNL     1       4.039   3.527  -1.538  1.00  0.00     0.278 C 
ENDBRANCH  11  17
ENDBRANCH   4   7
ENDBRANCH   1   3
BRANCH   1  19
ATOM     19  N   UNL     1      -1.635  -1.740  -1.217  1.00  0.00    -0.316 N 
ATOM     20  H   UNL     1      -0.985  -2.549  -1.100  1.00  0.00     0.170 HD
BRANCH  19  21
ATOM     21  C   UNL     1      -3.014  -1.925  -0.862  1.00  0.00     0.143 A 
ATOM     22  C   UNL     1      -3.538  -3.175  -0.547  1.00  0.00     0.114 A 
ATOM     23  N   UNL     1      -3.890  -0.887  -0.768  1.00  0.00    -0.219 NA
ATOM     24  S   UNL     1      -5.157  -2.959  -0.154  1.00  0.00    -0.120 S 
ATOM     25  C   UNL     1      -5.125  -1.290  -0.392  1.00  0.00     0.125 A 
BRANCH  25  26
ATOM     26  C   UNL     1      -6.268  -0.365  -0.221  1.00  0.00     0.011 A 
ATOM     27  C   UNL     1      -6.109   1.009  -0.481  1.00  0.00     0.014 A 
ATOM     28  C   UNL     1      -7.526  -0.837   0.199  1.00  0.00     0.014 A 
ATOM     29  C   UNL     1      -7.184   1.889  -0.324  1.00  0.00     0.040 A 
ATOM     30  C   UNL     1      -8.598   0.048   0.354  1.00  0.00     0.040 A 
ATOM     31  C   UNL     1      -8.428   1.409   0.093  1.00  0.00     0.123 A 
ATOM     32  F   UNL     1      -9.469   2.264   0.243  1.00  0.00    -0.207 F 
ENDBRANCH  25  26
ENDBRANCH  19  21
ENDBRANCH   1  19
TORSDOF 8
