REMARK SMILES Nc1ccccc1SCc1csc(-c2ccc(Cl)cc2)n1
REMARK SMILES IDX 8 1 7 2 2 3 3 4 4 5 6 6 5 7 1 8 9 11 10 12 11 13 21 14 12 15
REMARK SMILES IDX 13 16 14 17 15 18 20 19 16 20 19 21 17 22 18 23
REMARK H PARENT 1 9 1 10
ROOT
ATOM      1  S   UNL     1      -1.879   1.274  -0.483  1.00  0.00    -0.118 SA
ENDROOT
BRANCH   1   2
ATOM      2  C   UNL     1      -3.463   0.436  -0.331  1.00  0.00     0.031 A 
ATOM      3  C   UNL     1      -3.815  -0.289   0.829  1.00  0.00     0.045 A 
ATOM      4  C   UNL     1      -5.067  -0.921   0.891  1.00  0.00     0.026 A 
ATOM      5  C   UNL     1      -5.960  -0.832  -0.180  1.00  0.00     0.002 A 
ATOM      6  C   UNL     1      -4.368   0.521  -1.398  1.00  0.00     0.017 A 
ATOM      7  C   UNL     1      -5.610  -0.112  -1.323  1.00  0.00     0.001 A 
BRANCH   3   8
ATOM      8  N   UNL     1      -2.920  -0.398   1.944  1.00  0.00    -0.398 N 
ATOM      9  H   UNL     1      -3.196  -0.940   2.793  1.00  0.00     0.156 HD
ATOM     10  H   UNL     1      -1.978   0.049   1.945  1.00  0.00     0.156 HD
ENDBRANCH   3   8
ENDBRANCH   1   2
BRANCH   1  11
ATOM     11  C   UNL     1      -1.046  -0.173  -1.209  1.00  0.00     0.132 C 
BRANCH  11  12
ATOM     12  C   UNL     1       0.392   0.151  -1.448  1.00  0.00     0.062 A 
ATOM     13  C   UNL     1       0.855   0.729  -2.626  1.00  0.00     0.091 A 
ATOM     14  N   UNL     1       1.337  -0.043  -0.487  1.00  0.00    -0.240 NA
ATOM     15  S   UNL     1       2.507   0.981  -2.452  1.00  0.00    -0.122 S 
ATOM     16  C   UNL     1       2.565   0.357  -0.887  1.00  0.00     0.123 A 
BRANCH  16  17
ATOM     17  C   UNL     1       3.774   0.257  -0.037  1.00  0.00     0.011 A 
ATOM     18  C   UNL     1       3.682  -0.278   1.261  1.00  0.00     0.013 A 
ATOM     19  C   UNL     1       5.028   0.690  -0.507  1.00  0.00     0.013 A 
ATOM     20  C   UNL     1       4.818  -0.377   2.070  1.00  0.00     0.021 A 
ATOM     21  C   UNL     1       6.162   0.589   0.306  1.00  0.00     0.021 A 
ATOM     22  C   UNL     1       6.058   0.057   1.594  1.00  0.00     0.041 A 
ATOM     23  Cl  UNL     1       7.482  -0.068   2.610  1.00  0.00    -0.084 Cl
ENDBRANCH  16  17
ENDBRANCH  11  12
ENDBRANCH   1  11
TORSDOF 5
