REMARK SMILES CC(=O)Oc1c(C)c(OC(C)=O)c2c(c1C(C)=O)O[C@H]1C=C(O)C(C(C)=O)=C(O)[C@@]21C
REMARK SMILES IDX 22 1 21 2 20 3 19 4 14 5 15 6 5 7 6 8 7 9 8 10 13 11 30 12
REMARK SMILES IDX 31 13 28 14 24 15 23 16 25 18 26 19 27 20 29 21 16 23 17 24
REMARK SMILES IDX 18 25 9 26 10 27 11 28 12 29 4 30 2 31 1 32 3 33
REMARK H PARENT 23 17 29 22
ROOT
ATOM      1  C   UNL     1       2.114  -2.337  -1.822  1.00  0.00     0.129 C 
ATOM      2  C   UNL     1       0.996  -2.961  -1.462  1.00  0.00     0.065 C 
ATOM      3  C   UNL     1       0.321  -2.756  -0.137  1.00  0.00     0.218 C 
ATOM      4  O   UNL     1      -1.030  -2.414  -0.416  1.00  0.00    -0.483 OA
ATOM      5  C   UNL     1      -1.247  -1.074  -0.185  1.00  0.00     0.143 A 
ATOM      6  C   UNL     1      -2.410  -0.371  -0.500  1.00  0.00     0.103 A 
ATOM      7  C   UNL     1      -2.484   0.988  -0.130  1.00  0.00     0.152 A 
ATOM      8  C   UNL     1      -1.387   1.615   0.523  1.00  0.00     0.036 A 
ATOM      9  C   UNL     1      -1.513   3.043   0.993  1.00  0.00     0.052 C 
ATOM     10  C   UNL     1      -0.217   0.863   0.810  1.00  0.00     0.145 A 
ATOM     11  C   UNL     1      -0.171  -0.489   0.430  1.00  0.00     0.056 A 
ATOM     12  C   UNL     1       0.872  -1.551   0.713  1.00  0.00     0.098 C 
ATOM     13  C   UNL     1       0.802  -1.930   2.205  1.00  0.00     0.030 C 
ATOM     14  C   UNL     1       2.286  -1.115   0.315  1.00  0.00     0.121 C 
ATOM     15  C   UNL     1       2.807  -1.419  -0.889  1.00  0.00     0.097 C 
ENDROOT
BRANCH   1  16
ATOM     16  O   UNL     1       2.632  -2.611  -3.087  1.00  0.00    -0.507 OA
ATOM     17  H   UNL     1       3.509  -2.228  -3.417  1.00  0.00     0.293 HD
ENDBRANCH   1  16
BRANCH  15  18
ATOM     18  C   UNL     1       4.127  -0.883  -1.272  1.00  0.00     0.166 C 
ATOM     19  C   UNL     1       5.376  -1.336  -0.578  1.00  0.00     0.094 C 
ATOM     20  O   UNL     1       4.199  -0.014  -2.182  1.00  0.00    -0.294 OA
ENDBRANCH  15  18
BRANCH  14  21
ATOM     21  O   UNL     1       3.071  -0.367   1.199  1.00  0.00    -0.510 OA
ATOM     22  H   UNL     1       2.789  -0.132   2.137  1.00  0.00     0.293 HD
ENDBRANCH  14  21
BRANCH   6  23
ATOM     23  C   UNL     1      -3.536  -1.040  -1.186  1.00  0.00     0.167 C 
ATOM     24  C   UNL     1      -3.318  -1.858  -2.425  1.00  0.00     0.094 C 
ATOM     25  O   UNL     1      -4.709  -0.906  -0.741  1.00  0.00    -0.294 OA
ENDBRANCH   6  23
BRANCH  10  26
ATOM     26  O   UNL     1       0.866   1.443   1.477  1.00  0.00    -0.426 OA
BRANCH  26  27
ATOM     27  C   UNL     1       1.759   2.318   0.846  1.00  0.00     0.308 C 
ATOM     28  C   UNL     1       2.840   2.967   1.641  1.00  0.00     0.139 C 
ATOM     29  O   UNL     1       1.650   2.574  -0.383  1.00  0.00    -0.252 OA
ENDBRANCH  26  27
ENDBRANCH  10  26
BRANCH   7  30
ATOM     30  O   UNL     1      -3.636   1.719  -0.441  1.00  0.00    -0.425 OA
BRANCH  30  31
ATOM     31  C   UNL     1      -4.591   2.077   0.519  1.00  0.00     0.308 C 
ATOM     32  C   UNL     1      -5.655   3.048   0.150  1.00  0.00     0.139 C 
ATOM     33  O   UNL     1      -4.534   1.619   1.694  1.00  0.00    -0.252 OA
ENDBRANCH  30  31
ENDBRANCH   7  30
TORSDOF 8
