REMARK SMILES CCCN=c1cc(S)[nH]c(=N)[nH]1
REMARK SMILES IDX 4 1 5 2 7 3 6 4 9 5 10 6 12 7 8 10 11 12 3 14 2 15 1 16
REMARK H PARENT 9 8 12 9 8 11 11 13
ROOT
ATOM      1  N   UNL     1       0.632  -0.752  -0.073  1.00  0.00    -0.268 NA
ENDROOT
BRANCH   1   2
ATOM      2  C   UNL     1      -0.636  -0.470   0.051  1.00  0.00     0.130 A 
ATOM      3  C   UNL     1      -2.479   1.076   0.202  1.00  0.00     0.075 A 
ATOM      4  C   UNL     1      -1.109   0.855   0.066  1.00  0.00     0.079 A 
ATOM      5  N   UNL     1      -3.331   0.024   0.316  1.00  0.00    -0.321 N 
ATOM      6  C   UNL     1      -2.864  -1.257   0.300  1.00  0.00     0.199 A 
ATOM      7  N   UNL     1      -1.529  -1.492   0.168  1.00  0.00    -0.311 N 
ATOM      8  H   UNL     1      -4.355   0.208   0.416  1.00  0.00     0.170 HD
ATOM      9  H   UNL     1      -1.182  -2.480   0.157  1.00  0.00     0.171 HD
BRANCH   3  10
ATOM     10  S   UNL     1      -3.113   2.751   0.225  1.00  0.00    -0.126 SA
ATOM     11  H   UNL     1      -3.278   2.764  -1.173  1.00  0.00     0.109 HD
ENDBRANCH   3  10
BRANCH   6  12
ATOM     12  N   UNL     1      -3.684  -2.256   0.409  1.00  0.00    -0.269 NA
ATOM     13  H   UNL     1      -4.715  -2.120   0.512  1.00  0.00     0.191 HD
ENDBRANCH   6  12
ENDBRANCH   1   2
BRANCH   1  14
ATOM     14  C   UNL     1       1.723   0.211  -0.210  1.00  0.00     0.144 C 
BRANCH  14  15
ATOM     15  C   UNL     1       3.050  -0.537  -0.328  1.00  0.00     0.020 C 
ATOM     16  C   UNL     1       4.220   0.432  -0.473  1.00  0.00     0.006 C 
ENDBRANCH  14  15
ENDBRANCH   1  14
TORSDOF 5
