REMARK SMILES CSc1cccc(NC(=O)Nc2ccccc2C(N)=O)c1
REMARK SMILES IDX 8 1 9 2 10 3 11 4 7 7 3 8 4 9 21 10 5 11 6 12 2 13 1 14
REMARK SMILES IDX 12 15 13 16 17 17 14 18 16 19 15 20 18 21 19 22 20 23
REMARK H PARENT 8 5 11 6 19 24 19 25
ROOT
ATOM      1  N   UNL     1       0.684  -1.193   0.575  1.00  0.00    -0.308 N 
ATOM      2  C   UNL     1      -0.245  -0.445  -0.224  1.00  0.00     0.323 C 
ATOM      3  O   UNL     1       0.055  -0.111  -1.403  1.00  0.00    -0.248 OA
ATOM      4  N   UNL     1      -1.546  -0.142   0.301  1.00  0.00    -0.307 N 
ATOM      5  H   UNL     1       0.309  -1.703   1.406  1.00  0.00     0.171 HD
ATOM      6  H   UNL     1      -1.831  -0.595   1.198  1.00  0.00     0.171 HD
ENDROOT
BRANCH   1   7
ATOM      7  C   UNL     1       2.073  -1.368   0.245  1.00  0.00     0.043 A 
ATOM      8  C   UNL     1       4.170  -0.538  -0.676  1.00  0.00     0.009 A 
ATOM      9  C   UNL     1       4.800  -1.737  -0.324  1.00  0.00     0.015 A 
ATOM     10  C   UNL     1       2.811  -0.352  -0.390  1.00  0.00     0.041 A 
ATOM     11  C   UNL     1       4.079  -2.740   0.327  1.00  0.00     0.003 A 
ATOM     12  C   UNL     1       2.724  -2.554   0.618  1.00  0.00     0.026 A 
BRANCH   8  13
ATOM     13  S   UNL     1       5.101   0.759  -1.493  1.00  0.00    -0.130 SA
ATOM     14  C   UNL     1       5.596   1.555   0.067  1.00  0.00     0.091 C 
ENDBRANCH   8  13
ENDBRANCH   1   7
BRANCH   4  15
ATOM     15  C   UNL     1      -2.484   0.723  -0.362  1.00  0.00     0.055 A 
ATOM     16  C   UNL     1      -2.043   1.943  -0.906  1.00  0.00     0.027 A 
ATOM     17  C   UNL     1      -3.866   0.408  -0.392  1.00  0.00     0.063 A 
ATOM     18  C   UNL     1      -2.950   2.832  -1.486  1.00  0.00     0.002 A 
ATOM     19  C   UNL     1      -4.765   1.318  -0.979  1.00  0.00     0.016 A 
ATOM     20  C   UNL     1      -4.308   2.520  -1.523  1.00  0.00     0.001 A 
BRANCH  17  21
ATOM     21  C   UNL     1      -4.382  -0.881   0.130  1.00  0.00     0.250 C 
ATOM     22  N   UNL     1      -5.659  -0.957   0.767  1.00  0.00    -0.366 N 
ATOM     23  O   UNL     1      -3.698  -1.932   0.002  1.00  0.00    -0.269 OA
ATOM     24  H   UNL     1      -6.030  -1.878   1.090  1.00  0.00     0.159 HD
ATOM     25  H   UNL     1      -6.213  -0.096   0.974  1.00  0.00     0.159 HD
ENDBRANCH  17  21
ENDBRANCH   4  15
TORSDOF 4
