REMARK SMILES Cc1nnc2ccc3ccccc3n12
REMARK SMILES IDX 1 1 2 2 3 3 4 4 5 5 6 6 7 7 8 8 9 9 10 10 11 11 12 12 13 13
REMARK SMILES IDX 14 14
REMARK H PARENT
ROOT
ATOM      1  C   UNL     1       2.973  -0.788   0.135  1.00  0.00     0.090 C 
ATOM      2  C   UNL     1       2.215   0.500   0.123  1.00  0.00     0.134 A 
ATOM      3  N   UNL     1       2.845   1.694   0.179  1.00  0.00    -0.135 NA
ATOM      4  N   UNL     1       1.918   2.640   0.151  1.00  0.00    -0.130 NA
ATOM      5  C   UNL     1       0.737   2.006   0.078  1.00  0.00     0.161 A 
ATOM      6  C   UNL     1      -0.505   2.627   0.027  1.00  0.00     0.050 A 
ATOM      7  C   UNL     1      -1.641   1.816  -0.047  1.00  0.00     0.014 A 
ATOM      8  C   UNL     1      -1.514   0.413  -0.069  1.00  0.00    -0.001 A 
ATOM      9  C   UNL     1      -2.658  -0.396  -0.143  1.00  0.00     0.010 A 
ATOM     10  C   UNL     1      -2.533  -1.785  -0.165  1.00  0.00     0.001 A 
ATOM     11  C   UNL     1      -1.271  -2.376  -0.112  1.00  0.00     0.002 A 
ATOM     12  C   UNL     1      -0.120  -1.586  -0.038  1.00  0.00     0.027 A 
ATOM     13  C   UNL     1      -0.219  -0.179  -0.015  1.00  0.00     0.056 A 
ATOM     14  N   UNL     1       0.866   0.663   0.057  1.00  0.00    -0.279 N 
ENDROOT
TORSDOF 0
