REMARK SMILES [SH2]=c1[nH]cnc2c1ncn2C1CCCC1
REMARK SMILES IDX 3 1 4 2 5 3 6 4 7 5 8 6 9 7 10 8 2 9 1 11 11 14 12 15 15 16
REMARK SMILES IDX 13 17 14 18
REMARK H PARENT 3 10 1 12 1 13
ROOT
ATOM      1  N   UNL     1       3.439   1.553  -0.366  1.00  0.00    -0.340 N 
ATOM      2  C   UNL     1       2.259   2.251  -0.432  1.00  0.00     0.199 A 
ATOM      3  N   UNL     1       1.068   1.629  -0.186  1.00  0.00    -0.219 NA
ATOM      4  C   UNL     1       1.086   0.308   0.111  1.00  0.00     0.164 A 
ATOM      5  C   UNL     1       2.236  -0.402   0.195  1.00  0.00     0.136 A 
ATOM      6  N   UNL     1       1.976  -1.665   0.580  1.00  0.00    -0.232 NA
ATOM      7  C   UNL     1       0.622  -1.671   0.713  1.00  0.00     0.202 A 
ATOM      8  N   UNL     1       0.039  -0.479   0.408  1.00  0.00    -0.312 N 
ATOM      9  C   UNL     1       3.459   0.220  -0.049  1.00  0.00     0.088 A 
ATOM     10  H   UNL     1       4.332   2.060  -0.556  1.00  0.00     0.168 HD
ENDROOT
BRANCH   9  11
ATOM     11  S   UNL     1       4.864  -0.577   0.047  1.00  0.00    -0.190 S 
ATOM     12  H   UNL     1       4.551  -1.922   0.230  1.00  0.00     0.095 HD
ATOM     13  H   UNL     1       5.355  -0.525  -1.255  1.00  0.00     0.095 HD
ENDBRANCH   9  11
BRANCH   8  14
ATOM     14  C   UNL     1      -1.366  -0.078   0.597  1.00  0.00     0.090 C 
ATOM     15  C   UNL     1      -1.872   0.810  -0.538  1.00  0.00     0.025 C 
ATOM     16  C   UNL     1      -2.326  -1.263   0.598  1.00  0.00     0.025 C 
ATOM     17  C   UNL     1      -3.374   0.555  -0.640  1.00  0.00     0.002 C 
ATOM     18  C   UNL     1      -3.673  -0.682   0.202  1.00  0.00     0.002 C 
ENDBRANCH   8  14
TORSDOF 2
