REMARK SMILES CCCCNC(=O)Nc1ccccc1CC
REMARK SMILES IDX 5 1 6 2 7 3 8 4 4 7 3 8 2 9 1 10 9 11 10 12 14 13 11 14
REMARK SMILES IDX 13 15 12 16 15 17 16 18
REMARK H PARENT 5 5 8 6
ROOT
ATOM      1  N   UNL     1       1.534  -0.291   0.212  1.00  0.00    -0.338 N 
ATOM      2  C   UNL     1       0.141  -0.514  -0.039  1.00  0.00     0.319 C 
ATOM      3  O   UNL     1      -0.265  -0.702  -1.219  1.00  0.00    -0.249 OA
ATOM      4  N   UNL     1      -0.791  -0.493   1.053  1.00  0.00    -0.308 N 
ATOM      5  H   UNL     1       1.844  -0.131   1.197  1.00  0.00     0.165 HD
ATOM      6  H   UNL     1      -0.443  -0.177   1.984  1.00  0.00     0.171 HD
ENDROOT
BRANCH   1   7
ATOM      7  C   UNL     1       2.514  -0.283  -0.874  1.00  0.00     0.117 C 
BRANCH   7   8
ATOM      8  C   UNL     1       3.928  -0.034  -0.331  1.00  0.00     0.021 C 
BRANCH   8   9
ATOM      9  C   UNL     1       5.006  -0.134  -1.421  1.00  0.00    -0.002 C 
ATOM     10  C   UNL     1       4.962   1.034  -2.406  1.00  0.00     0.004 C 
ENDBRANCH   8   9
ENDBRANCH   7   8
ENDBRANCH   1   7
BRANCH   4  11
ATOM     11  C   UNL     1      -2.180  -0.836   0.906  1.00  0.00     0.046 A 
ATOM     12  C   UNL     1      -2.540  -1.997   0.199  1.00  0.00     0.026 A 
ATOM     13  C   UNL     1      -3.194  -0.037   1.492  1.00  0.00    -0.025 A 
ATOM     14  C   UNL     1      -3.881  -2.352   0.051  1.00  0.00     0.002 A 
ATOM     15  C   UNL     1      -4.542  -0.404   1.319  1.00  0.00     0.006 A 
ATOM     16  C   UNL     1      -4.880  -1.555   0.607  1.00  0.00     0.000 A 
BRANCH  13  17
ATOM     17  C   UNL     1      -2.876   1.245   2.226  1.00  0.00     0.034 C 
ATOM     18  C   UNL     1      -2.566   2.373   1.247  1.00  0.00     0.009 C 
ENDBRANCH  13  17
ENDBRANCH   4  11
TORSDOF 5
