REMARK SMILES CC(=O)Nc1ccc(Cc2nc3c([nH]2)c(=O)n(C)c(=O)n3C)cc1
REMARK SMILES IDX 5 1 6 2 7 3 8 4 23 5 24 6 4 7 2 8 1 9 3 10 9 12 10 13 11 14
REMARK SMILES IDX 14 15 12 16 13 17 21 18 15 19 19 20 17 21 22 23 16 24 20 25
REMARK SMILES IDX 18 26
REMARK H PARENT 4 11 14 22
ROOT
ATOM      1  C   UNL     1       3.593   0.103  -0.624  1.00  0.00     0.041 A 
ATOM      2  C   UNL     1       2.979  -0.763  -1.540  1.00  0.00     0.026 A 
ATOM      3  C   UNL     1       1.755  -0.426  -2.126  1.00  0.00     0.006 A 
ATOM      4  C   UNL     1       1.139   0.797  -1.822  1.00  0.00    -0.040 A 
ATOM      5  C   UNL     1       1.755   1.671  -0.914  1.00  0.00     0.006 A 
ATOM      6  C   UNL     1       2.978   1.333  -0.328  1.00  0.00     0.026 A 
ENDROOT
BRANCH   1   7
ATOM      7  N   UNL     1       4.862  -0.260  -0.053  1.00  0.00    -0.326 N 
ATOM      8  C   UNL     1       5.283   0.104   1.271  1.00  0.00     0.221 C 
ATOM      9  C   UNL     1       6.691  -0.151   1.699  1.00  0.00     0.114 C 
ATOM     10  O   UNL     1       4.457   0.560   2.107  1.00  0.00    -0.275 OA
ATOM     11  H   UNL     1       5.483  -0.897  -0.601  1.00  0.00     0.169 HD
ENDBRANCH   1   7
BRANCH   4  12
ATOM     12  C   UNL     1      -0.197   1.143  -2.420  1.00  0.00     0.110 C 
BRANCH  12  13
ATOM     13  C   UNL     1      -1.294   0.651  -1.531  1.00  0.00     0.113 A 
ATOM     14  N   UNL     1      -1.828   1.402  -0.531  1.00  0.00    -0.215 NA
ATOM     15  N   UNL     1      -1.785  -0.613  -1.587  1.00  0.00    -0.336 N 
ATOM     16  C   UNL     1      -2.705   0.550   0.035  1.00  0.00     0.168 A 
ATOM     17  C   UNL     1      -2.677  -0.646  -0.590  1.00  0.00     0.150 A 
ATOM     18  N   UNL     1      -3.504   0.790   1.110  1.00  0.00    -0.279 N 
ATOM     19  C   UNL     1      -3.469  -1.692  -0.150  1.00  0.00     0.281 A 
ATOM     20  C   UNL     1      -4.288  -0.246   1.574  1.00  0.00     0.332 A 
ATOM     21  N   UNL     1      -4.297  -1.473   0.928  1.00  0.00    -0.261 N 
ATOM     22  H   UNL     1      -1.514  -1.382  -2.239  1.00  0.00     0.168 HD
ATOM     23  C   UNL     1      -3.464   2.084   1.802  1.00  0.00     0.157 C 
ATOM     24  O   UNL     1      -3.418  -2.813  -0.726  1.00  0.00    -0.267 OA
ATOM     25  O   UNL     1      -5.000  -0.074   2.603  1.00  0.00    -0.247 OA
ATOM     26  C   UNL     1      -5.128  -2.570   1.449  1.00  0.00     0.159 C 
ENDBRANCH  12  13
ENDBRANCH   4  12
TORSDOF 3
