REMARK SMILES O=C([O-])c1[nH]c(O)nc(=O)c1F
REMARK SMILES IDX 6 1 8 2 9 3 10 4 11 5 12 6 4 7 5 8 7 10 2 12 1 13 3 14
REMARK H PARENT 5 9 7 11
ROOT
ATOM      1  C   UNL     1       1.611  -0.058  -0.028  1.00  0.00     0.295 A 
ATOM      2  N   UNL     1       1.530   1.297  -0.015  1.00  0.00    -0.154 NA
ATOM      3  C   UNL     1       0.329   1.925   0.010  1.00  0.00     0.312 A 
ATOM      4  O   UNL     1       0.282   3.183   0.021  1.00  0.00    -0.264 OA
ATOM      5  C   UNL     1      -0.850   1.177   0.024  1.00  0.00     0.215 A 
ATOM      6  F   UNL     1      -2.050   1.814   0.049  1.00  0.00    -0.198 F 
ATOM      7  C   UNL     1      -0.760  -0.227   0.011  1.00  0.00     0.107 A 
ATOM      8  N   UNL     1       0.476  -0.810  -0.014  1.00  0.00    -0.305 N 
ATOM      9  H   UNL     1       0.565  -1.851  -0.024  1.00  0.00     0.171 HD
ENDROOT
BRANCH   1  10
ATOM     10  O   UNL     1       2.863  -0.667  -0.053  1.00  0.00    -0.480 OA
ATOM     11  H   UNL     1       2.957  -1.676  -0.063  1.00  0.00     0.296 HD
ENDBRANCH   1  10
BRANCH   7  12
ATOM     12  C   UNL     1      -1.974  -1.078   0.025  1.00  0.00     0.091 C 
ATOM     13  O   UNL     1      -3.124  -0.567   0.048  1.00  0.00    -0.543 OA
ATOM     14  O   UNL     1      -1.856  -2.463   0.011  1.00  0.00    -0.543 OA
ENDBRANCH   7  12
TORSDOF 2
