REMARK SMILES Cc1cc(-c2ccc(N3C(=O)CC4(CCCC4)C3=O)c(C)c2)ccc1N1C(=O)CC2(CCCC2)C1=O
REMARK SMILES IDX 1 1 2 2 3 3 4 4 23 5 24 6 25 7 26 8 27 9 35 10 29 11 30 12
REMARK SMILES IDX 31 13 34 14 32 15 33 16 28 17 36 18 5 19 6 20 22 21 7 22
REMARK SMILES IDX 20 23 8 24 21 25 9 26 10 27 18 28 12 29 13 30 14 31 17 32
REMARK SMILES IDX 15 33 16 34 11 35 19 36
REMARK H PARENT
ROOT
ATOM      1  C   UNL     1       3.803  -1.755  -1.734  1.00  0.00     0.046 C 
ATOM      2  C   UNL     1       2.964  -0.906  -0.817  1.00  0.00    -0.026 A 
ATOM      3  C   UNL     1       1.563  -0.945  -0.923  1.00  0.00     0.014 A 
ATOM      4  C   UNL     1       0.754  -0.155  -0.086  1.00  0.00    -0.018 A 
ATOM      5  C   UNL     1       1.367   0.676   0.867  1.00  0.00     0.011 A 
ATOM      6  C   UNL     1       2.757   0.710   0.987  1.00  0.00     0.028 A 
ATOM      7  C   UNL     1       3.561  -0.087   0.166  1.00  0.00     0.055 A 
ENDROOT
BRANCH   7   8
ATOM      8  N   UNL     1       4.984  -0.036   0.324  1.00  0.00    -0.250 N 
ATOM      9  C   UNL     1       5.819  -1.096   0.753  1.00  0.00     0.234 C 
ATOM     10  C   UNL     1       5.836   0.955  -0.220  1.00  0.00     0.240 C 
ATOM     11  C   UNL     1       7.271  -0.825   0.544  1.00  0.00     0.118 C 
ATOM     12  C   UNL     1       7.289   0.570  -0.167  1.00  0.00     0.059 C 
ATOM     13  C   UNL     1       8.147   1.594   0.578  1.00  0.00     0.017 C 
ATOM     14  C   UNL     1       7.922   0.499  -1.558  1.00  0.00     0.017 C 
ATOM     15  C   UNL     1       9.557   1.403   0.030  1.00  0.00     0.001 C 
ATOM     16  C   UNL     1       9.414   0.710  -1.328  1.00  0.00     0.001 C 
ATOM     17  O   UNL     1       5.372  -2.154   1.272  1.00  0.00    -0.274 OA
ATOM     18  O   UNL     1       5.402   2.028  -0.719  1.00  0.00    -0.273 OA
ENDBRANCH   7   8
BRANCH   4  19
ATOM     19  C   UNL     1      -0.725  -0.206  -0.201  1.00  0.00    -0.018 A 
ATOM     20  C   UNL     1      -1.343  -0.239  -1.463  1.00  0.00     0.011 A 
ATOM     21  C   UNL     1      -1.528  -0.240   0.953  1.00  0.00     0.014 A 
ATOM     22  C   UNL     1      -2.734  -0.283  -1.568  1.00  0.00     0.028 A 
ATOM     23  C   UNL     1      -2.927  -0.315   0.857  1.00  0.00    -0.026 A 
ATOM     24  C   UNL     1      -3.535  -0.302  -0.420  1.00  0.00     0.055 A 
ATOM     25  C   UNL     1      -3.743  -0.414   2.116  1.00  0.00     0.046 C 
BRANCH  24  26
ATOM     26  N   UNL     1      -4.962  -0.333  -0.566  1.00  0.00    -0.250 N 
ATOM     27  C   UNL     1      -5.720  -1.399  -1.107  1.00  0.00     0.234 C 
ATOM     28  C   UNL     1      -5.891   0.603  -0.049  1.00  0.00     0.240 C 
ATOM     29  C   UNL     1      -7.194  -1.208  -0.959  1.00  0.00     0.118 C 
ATOM     30  C   UNL     1      -7.318   0.149  -0.191  1.00  0.00     0.059 C 
ATOM     31  C   UNL     1      -8.197   1.161  -0.930  1.00  0.00     0.017 C 
ATOM     32  C   UNL     1      -8.005  -0.016   1.166  1.00  0.00     0.017 C 
ATOM     33  C   UNL     1      -9.618   0.889  -0.445  1.00  0.00     0.001 C 
ATOM     34  C   UNL     1      -9.496   0.124   0.877  1.00  0.00     0.001 C 
ATOM     35  O   UNL     1      -5.196  -2.410  -1.647  1.00  0.00    -0.274 OA
ATOM     36  O   UNL     1      -5.542   1.702   0.460  1.00  0.00    -0.273 OA
ENDBRANCH  24  26
ENDBRANCH   4  19
TORSDOF 3
