REMARK SMILES CC(=O)Oc1c(C)c(OC(C)=O)c2c(c1C(C)=O)O[C@H]1C=C(O)C(C(C)=O)=C(O)[C@]21C
REMARK SMILES IDX 22 1 21 2 20 3 19 4 14 5 15 6 5 7 6 8 7 9 8 10 13 11 30 12
REMARK SMILES IDX 31 13 28 14 24 15 23 16 25 18 26 19 27 20 29 21 16 23 17 24
REMARK SMILES IDX 18 25 9 26 10 27 11 28 12 29 4 30 2 31 1 32 3 33
REMARK H PARENT 23 17 29 22
ROOT
ATOM      1  C   UNL     1       4.145  -0.988  -0.883  1.00  0.00     0.129 C 
ATOM      2  C   UNL     1       3.122  -1.841  -1.127  1.00  0.00     0.065 C 
ATOM      3  C   UNL     1       1.882  -1.598  -0.334  1.00  0.00     0.218 C 
ATOM      4  O   UNL     1       0.674  -2.269  -0.642  1.00  0.00    -0.483 OA
ATOM      5  C   UNL     1      -0.338  -1.465  -0.117  1.00  0.00     0.143 A 
ATOM      6  C   UNL     1      -1.679  -1.820   0.051  1.00  0.00     0.103 A 
ATOM      7  C   UNL     1      -2.560  -0.841   0.580  1.00  0.00     0.152 A 
ATOM      8  C   UNL     1      -2.075   0.459   0.915  1.00  0.00     0.036 A 
ATOM      9  C   UNL     1      -2.978   1.457   1.597  1.00  0.00     0.052 C 
ATOM     10  C   UNL     1      -0.727   0.801   0.638  1.00  0.00     0.145 A 
ATOM     11  C   UNL     1       0.138  -0.204   0.205  1.00  0.00     0.056 A 
ATOM     12  C   UNL     1       1.526  -0.101  -0.361  1.00  0.00     0.098 C 
ATOM     13  C   UNL     1       1.401   0.482  -1.796  1.00  0.00     0.030 C 
ATOM     14  C   UNL     1       2.665   0.590   0.364  1.00  0.00     0.121 C 
ATOM     15  C   UNL     1       3.942   0.198   0.043  1.00  0.00     0.097 C 
ENDROOT
BRANCH   1  16
ATOM     16  O   UNL     1       5.378  -1.181  -1.505  1.00  0.00    -0.507 OA
ATOM     17  H   UNL     1       5.542  -1.959  -2.135  1.00  0.00     0.293 HD
ENDBRANCH   1  16
BRANCH  15  18
ATOM     18  C   UNL     1       5.128   0.913   0.568  1.00  0.00     0.166 C 
ATOM     19  C   UNL     1       6.336   0.164   1.037  1.00  0.00     0.094 C 
ATOM     20  O   UNL     1       5.155   2.173   0.563  1.00  0.00    -0.294 OA
ENDBRANCH  15  18
BRANCH  14  21
ATOM     21  O   UNL     1       2.389   1.588   1.300  1.00  0.00    -0.510 OA
ATOM     22  H   UNL     1       3.094   2.006   1.892  1.00  0.00     0.293 HD
ENDBRANCH  14  21
BRANCH   6  23
ATOM     23  C   UNL     1      -2.124  -3.189  -0.315  1.00  0.00     0.167 C 
ATOM     24  C   UNL     1      -3.485  -3.463  -0.878  1.00  0.00     0.094 C 
ATOM     25  O   UNL     1      -1.337  -4.160  -0.149  1.00  0.00    -0.294 OA
ENDBRANCH   6  23
BRANCH  10  26
ATOM     26  O   UNL     1      -0.241   2.103   0.797  1.00  0.00    -0.426 OA
BRANCH  26  27
ATOM     27  C   UNL     1      -0.770   3.210   0.126  1.00  0.00     0.308 C 
ATOM     28  C   UNL     1      -0.265   4.574   0.452  1.00  0.00     0.139 C 
ATOM     29  O   UNL     1      -1.612   3.061  -0.801  1.00  0.00    -0.252 OA
ENDBRANCH  26  27
ENDBRANCH  10  26
BRANCH   7  30
ATOM     30  O   UNL     1      -3.899  -1.181   0.816  1.00  0.00    -0.425 OA
BRANCH  30  31
ATOM     31  C   UNL     1      -4.977  -0.537   0.198  1.00  0.00     0.308 C 
ATOM     32  C   UNL     1      -6.367  -0.885   0.605  1.00  0.00     0.139 C 
ATOM     33  O   UNL     1      -4.787   0.273  -0.750  1.00  0.00    -0.252 OA
ENDBRANCH  30  31
ENDBRANCH   7  30
TORSDOF 8
