REMARK SMILES CCCCNc1cc(Cl)[nH]c(=N)n1
REMARK SMILES IDX 5 1 6 3 10 4 8 5 11 6 7 7 13 8 9 10 12 11 4 13 3 14 2 15
REMARK SMILES IDX 1 16
REMARK H PARENT 5 2 10 9 12 12
ROOT
ATOM      1  N   UNL     1      -0.005  -0.425  -0.845  1.00  0.00    -0.370 N 
ATOM      2  H   UNL     1      -0.317  -1.363  -1.188  1.00  0.00     0.162 HD
ENDROOT
BRANCH   1   3
ATOM      3  C   UNL     1       1.360  -0.261  -0.437  1.00  0.00     0.133 A 
ATOM      4  N   UNL     1       3.970   0.078   0.351  1.00  0.00    -0.315 N 
ATOM      5  C   UNL     1       3.562  -1.149  -0.072  1.00  0.00     0.112 A 
ATOM      6  C   UNL     1       3.100   1.126   0.385  1.00  0.00     0.222 A 
ATOM      7  C   UNL     1       2.242  -1.345  -0.476  1.00  0.00     0.085 A 
ATOM      8  N   UNL     1       1.809   0.949  -0.007  1.00  0.00    -0.196 NA
ATOM      9  H   UNL     1       4.961   0.214   0.652  1.00  0.00     0.171 HD
ATOM     10  Cl  UNL     1       4.696  -2.488  -0.109  1.00  0.00    -0.064 Cl
BRANCH   6  11
ATOM     11  N   UNL     1       3.501   2.288   0.790  1.00  0.00    -0.267 NA
ATOM     12  H   UNL     1       2.853   3.107   0.825  1.00  0.00     0.191 HD
ENDBRANCH   6  11
ENDBRANCH   1   3
BRANCH   1  13
ATOM     13  C   UNL     1      -0.951   0.692  -0.817  1.00  0.00     0.114 C 
BRANCH  13  14
ATOM     14  C   UNL     1      -2.365   0.253  -1.230  1.00  0.00     0.021 C 
BRANCH  14  15
ATOM     15  C   UNL     1      -3.033  -0.701  -0.223  1.00  0.00    -0.002 C 
ATOM     16  C   UNL     1      -3.444  -0.001   1.073  1.00  0.00     0.004 C 
ENDBRANCH  14  15
ENDBRANCH  13  14
ENDBRANCH   1  13
TORSDOF 5
