REMARK SMILES O=C([O-])CC=C(O)c1ccc2ccc3cccc4ccc1c2c34
REMARK SMILES IDX 5 1 6 2 7 3 8 5 9 6 21 7 10 8 20 9 22 10 11 11 19 12 23 13
REMARK SMILES IDX 12 14 18 15 14 16 13 17 17 18 15 19 16 20 4 21 2 22 1 23
REMARK SMILES IDX 3 24
REMARK H PARENT 7 4
ROOT
ATOM      1  C   UNL     1       3.212   0.547  -0.110  1.00  0.00     0.026 C 
ENDROOT
BRANCH   1   2
ATOM      2  C   UNL     1       2.466   0.422  -1.222  1.00  0.00     0.119 C 
BRANCH   2   3
ATOM      3  O   UNL     1       2.899   0.905  -2.461  1.00  0.00    -0.508 OA
ATOM      4  H   UNL     1       3.779   1.387  -2.595  1.00  0.00     0.293 HD
ENDBRANCH   2   3
BRANCH   2   5
ATOM      5  C   UNL     1       1.168  -0.285  -1.170  1.00  0.00     0.024 A 
ATOM      6  C   UNL     1       1.017  -1.424  -1.976  1.00  0.00     0.013 A 
ATOM      7  C   UNL     1       0.088   0.139  -0.349  1.00  0.00    -0.006 A 
ATOM      8  C   UNL     1      -0.159  -2.173  -1.949  1.00  0.00     0.009 A 
ATOM      9  C   UNL     1       0.149   1.319   0.422  1.00  0.00     0.010 A 
ATOM     10  C   UNL     1      -1.103  -0.631  -0.323  1.00  0.00    -0.002 A 
ATOM     11  C   UNL     1      -1.220  -1.792  -1.121  1.00  0.00    -0.017 A 
ATOM     12  C   UNL     1      -0.924   1.704   1.230  1.00  0.00     0.009 A 
ATOM     13  C   UNL     1      -2.186  -0.237   0.495  1.00  0.00    -0.003 A 
ATOM     14  C   UNL     1      -2.400  -2.550  -1.084  1.00  0.00     0.009 A 
ATOM     15  C   UNL     1      -2.091   0.933   1.279  1.00  0.00    -0.017 A 
ATOM     16  C   UNL     1      -3.369  -1.012   0.526  1.00  0.00    -0.017 A 
ATOM     17  C   UNL     1      -3.465  -2.166  -0.265  1.00  0.00     0.009 A 
ATOM     18  C   UNL     1      -3.170   1.315   2.090  1.00  0.00     0.009 A 
ATOM     19  C   UNL     1      -4.437  -0.614   1.344  1.00  0.00     0.009 A 
ATOM     20  C   UNL     1      -4.334   0.543   2.122  1.00  0.00     0.001 A 
ENDBRANCH   2   5
ENDBRANCH   1   2
BRANCH   1  21
ATOM     21  C   UNL     1       4.541   1.247  -0.092  1.00  0.00     0.084 C 
BRANCH  21  22
ATOM     22  C   UNL     1       5.116   1.258   1.289  1.00  0.00     0.045 C 
ATOM     23  O   UNL     1       5.869   0.323   1.669  1.00  0.00    -0.550 OA
ATOM     24  O   UNL     1       4.778   2.273   2.174  1.00  0.00    -0.550 OA
ENDBRANCH  21  22
ENDBRANCH   1  21
TORSDOF 5
