REMARK SMILES Cc1cc(S)nc([S-])n1
REMARK SMILES IDX 4 1 3 2 2 3 1 4 9 5 7 6 8 7 6 8 5 9
REMARK H PARENT 5 10
ROOT
ATOM      1  C   UNL     1       1.530  -0.242   0.376  1.00  0.00     0.095 A 
ATOM      2  C   UNL     1       0.238  -0.770   0.343  1.00  0.00     0.058 A 
ATOM      3  C   UNL     1      -0.817   0.071  -0.024  1.00  0.00     0.040 A 
ATOM      4  C   UNL     1      -2.218  -0.450  -0.075  1.00  0.00     0.067 C 
ATOM      5  N   UNL     1      -0.564   1.370  -0.336  1.00  0.00    -0.263 NA
ATOM      6  C   UNL     1       0.701   1.866  -0.297  1.00  0.00     0.009 A 
ATOM      7  S   UNL     1       1.003   3.588  -0.716  1.00  0.00    -0.740 S 
ATOM      8  N   UNL     1       1.737   1.062   0.057  1.00  0.00    -0.251 NA
ENDROOT
BRANCH   1   9
ATOM      9  S   UNL     1       2.915  -1.273   0.837  1.00  0.00    -0.124 SA
ATOM     10  H   UNL     1       3.138  -1.663  -0.497  1.00  0.00     0.109 HD
ENDBRANCH   1   9
TORSDOF 1
