REMARK SMILES CCCCN=c1cc(Cl)[nH]c(=N)[nH]1
REMARK SMILES IDX 5 1 6 2 13 3 11 4 7 5 10 6 8 7 9 10 12 11 4 13 3 14 2 15
REMARK SMILES IDX 1 16
REMARK H PARENT 13 8 10 9 12 12
ROOT
ATOM      1  N   UNL     1       0.028  -0.129   0.307  1.00  0.00    -0.268 NA
ENDROOT
BRANCH   1   2
ATOM      2  C   UNL     1      -1.250  -0.372   0.227  1.00  0.00     0.130 A 
ATOM      3  N   UNL     1      -2.129   0.536  -0.297  1.00  0.00    -0.311 N 
ATOM      4  C   UNL     1      -3.464   0.256  -0.370  1.00  0.00     0.199 A 
ATOM      5  C   UNL     1      -1.727  -1.599   0.692  1.00  0.00     0.085 A 
ATOM      6  N   UNL     1      -3.934  -0.940   0.082  1.00  0.00    -0.317 N 
ATOM      7  C   UNL     1      -3.091  -1.866   0.610  1.00  0.00     0.112 A 
ATOM      8  H   UNL     1      -1.794   1.460  -0.651  1.00  0.00     0.171 HD
ATOM      9  H   UNL     1      -4.956  -1.152   0.026  1.00  0.00     0.170 HD
ATOM     10  Cl  UNL     1      -3.719  -3.400   1.187  1.00  0.00    -0.064 Cl
BRANCH   4  11
ATOM     11  N   UNL     1      -4.292   1.121  -0.868  1.00  0.00    -0.269 NA
ATOM     12  H   UNL     1      -3.977   2.050  -1.227  1.00  0.00     0.191 HD
ENDBRANCH   4  11
ENDBRANCH   1   2
BRANCH   1  13
ATOM     13  C   UNL     1       0.700   1.094  -0.131  1.00  0.00     0.144 C 
BRANCH  13  14
ATOM     14  C   UNL     1       2.203   0.995   0.137  1.00  0.00     0.023 C 
BRANCH  14  15
ATOM     15  C   UNL     1       2.868  -0.087  -0.725  1.00  0.00    -0.002 C 
ATOM     16  C   UNL     1       4.370  -0.150  -0.467  1.00  0.00     0.004 C 
ENDBRANCH  14  15
ENDBRANCH  13  14
ENDBRANCH   1  13
TORSDOF 5
