REMARK SMILES O=C(Nc1ccccc1Cl)Oc1ccc(Cl)cc1Cl
REMARK SMILES IDX 1 1 2 2 3 3 11 5 12 6 13 7 18 8 14 9 17 10 15 11 19 12 16 13
REMARK SMILES IDX 4 14 5 15 9 16 6 17 8 18 7 19 10 20
REMARK H PARENT 3 4
ROOT
ATOM      1  O   UNL     1      -0.036   0.732   0.588  1.00  0.00    -0.224 OA
ATOM      2  C   UNL     1       0.011  -0.424   0.086  1.00  0.00     0.417 C 
ATOM      3  N   UNL     1      -1.198  -1.101  -0.279  1.00  0.00    -0.289 N 
ATOM      4  H   UNL     1      -1.153  -2.135  -0.422  1.00  0.00     0.173 HD
ENDROOT
BRANCH   2   5
ATOM      5  O   UNL     1       1.232  -1.095  -0.051  1.00  0.00    -0.409 OA
BRANCH   5   6
ATOM      6  C   UNL     1       2.497  -0.487  -0.020  1.00  0.00     0.151 A 
ATOM      7  C   UNL     1       2.699   0.835  -0.461  1.00  0.00     0.050 A 
ATOM      8  C   UNL     1       3.599  -1.236   0.425  1.00  0.00     0.085 A 
ATOM      9  C   UNL     1       3.975   1.403  -0.428  1.00  0.00     0.024 A 
ATOM     10  C   UNL     1       4.875  -0.661   0.458  1.00  0.00     0.045 A 
ATOM     11  C   UNL     1       5.063   0.658   0.035  1.00  0.00     0.042 A 
ATOM     12  Cl  UNL     1       3.391  -2.897   0.959  1.00  0.00    -0.080 Cl
ATOM     13  Cl  UNL     1       6.664   1.374   0.075  1.00  0.00    -0.084 Cl
ENDBRANCH   5   6
ENDBRANCH   2   5
BRANCH   3  14
ATOM     14  C   UNL     1      -2.488  -0.475  -0.217  1.00  0.00     0.063 A 
ATOM     15  C   UNL     1      -3.497  -1.072   0.553  1.00  0.00     0.028 A 
ATOM     16  C   UNL     1      -2.776   0.699  -0.946  1.00  0.00     0.064 A 
ATOM     17  C   UNL     1      -4.764  -0.488   0.634  1.00  0.00     0.002 A 
ATOM     18  C   UNL     1      -4.049   1.277  -0.859  1.00  0.00     0.023 A 
ATOM     19  C   UNL     1      -5.038   0.689  -0.067  1.00  0.00     0.002 A 
ATOM     20  Cl  UNL     1      -1.599   1.421  -2.037  1.00  0.00    -0.082 Cl
ENDBRANCH   3  14
TORSDOF 3
