REMARK SMILES CCCc1cc(=O)oc2c3c(c4c(c12)OC(C)(C)C=C4)O[C@H](C)[C@@H](C)[C@@H]3O
REMARK SMILES IDX 4 1 5 2 6 3 7 4 8 5 9 6 10 7 11 8 12 9 13 10 14 11 15 12
REMARK SMILES IDX 16 13 17 14 18 15 19 16 20 17 21 18 22 19 23 20 24 21 25 22
REMARK SMILES IDX 26 23 3 24 2 25 1 26 27 27
REMARK H PARENT 27 28
ROOT
ATOM      1  C   UNL     1      -1.989   1.441  -0.858  1.00  0.00    -0.026 A 
ATOM      2  C   UNL     1      -1.807   2.610  -1.623  1.00  0.00     0.098 A 
ATOM      3  C   UNL     1      -0.525   3.074  -1.890  1.00  0.00     0.336 A 
ATOM      4  O   UNL     1      -0.364   4.134  -2.552  1.00  0.00    -0.246 OA
ATOM      5  O   UNL     1       0.532   2.416  -1.449  1.00  0.00    -0.422 OA
ATOM      6  C   UNL     1       0.450   1.279  -0.766  1.00  0.00     0.152 A 
ATOM      7  C   UNL     1       1.643   0.651  -0.347  1.00  0.00     0.067 A 
ATOM      8  C   UNL     1       1.580  -0.616   0.255  1.00  0.00     0.140 A 
ATOM      9  C   UNL     1       0.342  -1.215   0.513  1.00  0.00     0.060 A 
ATOM     10  C   UNL     1      -0.852  -0.576   0.139  1.00  0.00     0.142 A 
ATOM     11  C   UNL     1      -0.821   0.705  -0.477  1.00  0.00     0.064 A 
ATOM     12  O   UNL     1      -2.057  -1.248   0.380  1.00  0.00    -0.482 OA
ATOM     13  C   UNL     1      -2.153  -2.653   0.642  1.00  0.00     0.122 C 
ATOM     14  C   UNL     1      -3.357  -2.888   1.561  1.00  0.00     0.061 C 
ATOM     15  C   UNL     1      -2.357  -3.388  -0.688  1.00  0.00     0.061 C 
ATOM     16  C   UNL     1      -0.898  -3.170   1.309  1.00  0.00     0.021 C 
ATOM     17  C   UNL     1       0.264  -2.524   1.193  1.00  0.00     0.015 C 
ATOM     18  O   UNL     1       2.755  -1.292   0.598  1.00  0.00    -0.489 OA
ATOM     19  C   UNL     1       4.038  -0.891   0.127  1.00  0.00     0.176 C 
ATOM     20  C   UNL     1       5.101  -1.604   0.967  1.00  0.00     0.053 C 
ATOM     21  C   UNL     1       4.147   0.650   0.195  1.00  0.00     0.060 C 
ATOM     22  C   UNL     1       5.509   1.152  -0.316  1.00  0.00     0.015 C 
ATOM     23  C   UNL     1       2.996   1.295  -0.621  1.00  0.00     0.158 C 
ENDROOT
BRANCH   1  24
ATOM     24  C   UNL     1      -3.397   0.970  -0.491  1.00  0.00     0.036 C 
BRANCH  24  25
ATOM     25  C   UNL     1      -4.553   1.979  -0.644  1.00  0.00     0.001 C 
ATOM     26  C   UNL     1      -4.459   3.139   0.348  1.00  0.00     0.004 C 
ENDBRANCH  24  25
ENDBRANCH   1  24
BRANCH  23  27
ATOM     27  O   UNL     1       2.933   2.664  -0.299  1.00  0.00    -0.388 OA
ATOM     28  H   UNL     1       3.374   3.163  -1.035  1.00  0.00     0.211 HD
ENDBRANCH  23  27
TORSDOF 3
