REMARK SMILES C=C(O)c1c(OC(C)=O)c(C)c(OC(C)=O)c2c1O[C@H]1CC(=O)C(=C(C)O)C(=O)[C@]21C
REMARK SMILES IDX 24 1 22 2 23 3 21 4 20 5 19 6 18 7 4 8 5 9 10 10 11 11 12 12
REMARK SMILES IDX 17 13 30 14 31 15 28 16 29 17 25 18 26 19 27 20 13 22 14 23
REMARK SMILES IDX 15 24 16 25 2 26 1 27 3 28 6 30 7 31 8 32 9 33
REMARK H PARENT 27 21 3 29
ROOT
ATOM      1  C   UNL     1       3.934   0.076   0.100  1.00  0.00     0.099 C 
ATOM      2  C   UNL     1       4.113  -1.363  -0.363  1.00  0.00     0.173 C 
ATOM      3  O   UNL     1       5.230  -1.778  -0.770  1.00  0.00    -0.294 OA
ATOM      4  C   UNL     1       2.945  -2.339  -0.427  1.00  0.00     0.128 C 
ATOM      5  C   UNL     1       1.727  -1.690   0.214  1.00  0.00     0.199 C 
ATOM      6  O   UNL     1       0.489  -2.380   0.163  1.00  0.00    -0.487 OA
ATOM      7  C   UNL     1      -0.503  -1.412   0.279  1.00  0.00     0.142 A 
ATOM      8  C   UNL     1      -1.862  -1.638   0.512  1.00  0.00     0.101 A 
ATOM      9  C   UNL     1      -2.725  -0.519   0.555  1.00  0.00     0.152 A 
ATOM     10  C   UNL     1      -2.204   0.798   0.379  1.00  0.00     0.036 A 
ATOM     11  C   UNL     1      -3.093   2.001   0.570  1.00  0.00     0.052 C 
ATOM     12  C   UNL     1      -0.831   0.974   0.064  1.00  0.00     0.145 A 
ATOM     13  C   UNL     1       0.009  -0.143   0.099  1.00  0.00     0.056 A 
ATOM     14  C   UNL     1       1.432  -0.292  -0.370  1.00  0.00     0.101 C 
ATOM     15  C   UNL     1       1.428  -0.242  -1.919  1.00  0.00     0.029 C 
ATOM     16  C   UNL     1       2.519   0.600   0.162  1.00  0.00     0.184 C 
ATOM     17  O   UNL     1       2.242   1.735   0.635  1.00  0.00    -0.293 OA
ENDROOT
BRANCH   1  18
ATOM     18  C   UNL     1       4.981   0.866   0.464  1.00  0.00     0.104 C 
ATOM     19  C   UNL     1       6.403   0.371   0.514  1.00  0.00     0.087 C 
BRANCH  18  20
ATOM     20  O   UNL     1       4.755   2.201   0.808  1.00  0.00    -0.512 OA
ATOM     21  H   UNL     1       5.507   2.820   1.084  1.00  0.00     0.293 HD
ENDBRANCH  18  20
ENDBRANCH   1  18
BRANCH  12  22
ATOM     22  O   UNL     1      -0.297   2.225  -0.264  1.00  0.00    -0.426 OA
BRANCH  22  23
ATOM     23  C   UNL     1      -0.757   3.005  -1.330  1.00  0.00     0.308 C 
ATOM     24  C   UNL     1      -0.213   4.379  -1.520  1.00  0.00     0.139 C 
ATOM     25  O   UNL     1      -1.568   2.532  -2.172  1.00  0.00    -0.252 OA
ENDBRANCH  22  23
ENDBRANCH  12  22
BRANCH   8  26
ATOM     26  C   UNL     1      -2.379  -3.014   0.697  1.00  0.00     0.123 C 
ATOM     27  C   UNL     1      -1.807  -3.851   1.562  1.00  0.00     0.059 C 
BRANCH  26  28
ATOM     28  O   UNL     1      -3.482  -3.454  -0.033  1.00  0.00    -0.508 OA
ATOM     29  H   UNL     1      -3.907  -2.879  -0.750  1.00  0.00     0.293 HD
ENDBRANCH  26  28
ENDBRANCH   8  26
BRANCH   9  30
ATOM     30  O   UNL     1      -4.086  -0.726   0.821  1.00  0.00    -0.425 OA
BRANCH  30  31
ATOM     31  C   UNL     1      -5.109  -0.350  -0.056  1.00  0.00     0.308 C 
ATOM     32  C   UNL     1      -6.530  -0.457   0.381  1.00  0.00     0.139 C 
ATOM     33  O   UNL     1      -4.845   0.056  -1.220  1.00  0.00    -0.252 OA
ENDBRANCH  30  31
ENDBRANCH   9  30
TORSDOF 8
