REMARK SMILES CC(=O)Oc1c(C)c(OC(C)=O)c2c(c1C(C)=O)O[C@H]1CC(O)=C(C(C)=O)C(=O)[C@]21C
REMARK SMILES IDX 22 1 24 2 28 3 29 4 30 5 31 6 13 7 8 8 6 9 7 10 5 11 15 12
REMARK SMILES IDX 14 13 19 14 20 15 21 16 23 17 25 19 26 20 27 21 9 22 10 23
REMARK SMILES IDX 11 24 12 25 16 26 17 27 18 28 4 29 2 30 1 31 3 32
REMARK H PARENT 23 18
ROOT
ATOM      1  C   UNL     1       4.124  -1.056   0.626  1.00  0.00     0.110 C 
ATOM      2  C   UNL     1       3.881   0.295   0.618  1.00  0.00     0.099 C 
ATOM      3  C   UNL     1       2.491   0.811   0.371  1.00  0.00     0.184 C 
ATOM      4  O   UNL     1       2.204   2.027   0.534  1.00  0.00    -0.293 OA
ATOM      5  C   UNL     1       1.483  -0.165  -0.170  1.00  0.00     0.101 C 
ATOM      6  C   UNL     1       1.739  -0.378  -1.683  1.00  0.00     0.029 C 
ATOM      7  C   UNL     1      -0.001   0.010   0.019  1.00  0.00     0.056 A 
ATOM      8  C   UNL     1      -0.831   1.093  -0.285  1.00  0.00     0.145 A 
ATOM      9  C   UNL     1      -2.237   0.891  -0.271  1.00  0.00     0.036 A 
ATOM     10  C   UNL     1      -3.177   2.006  -0.656  1.00  0.00     0.052 C 
ATOM     11  C   UNL     1      -2.768  -0.386   0.060  1.00  0.00     0.152 A 
ATOM     12  C   UNL     1      -1.901  -1.467   0.368  1.00  0.00     0.103 A 
ATOM     13  C   UNL     1      -0.526  -1.239   0.298  1.00  0.00     0.142 A 
ATOM     14  O   UNL     1       0.480  -2.175   0.514  1.00  0.00    -0.487 OA
ATOM     15  C   UNL     1       1.674  -1.430   0.683  1.00  0.00     0.199 C 
ATOM     16  C   UNL     1       3.018  -2.094   0.412  1.00  0.00     0.122 C 
ENDROOT
BRANCH   1  17
ATOM     17  O   UNL     1       5.415  -1.529   0.856  1.00  0.00    -0.511 OA
ATOM     18  H   UNL     1       5.619  -2.521   0.865  1.00  0.00     0.293 HD
ENDBRANCH   1  17
BRANCH   2  19
ATOM     19  C   UNL     1       4.968   1.278   0.862  1.00  0.00     0.166 C 
ATOM     20  C   UNL     1       6.334   1.116   0.268  1.00  0.00     0.094 C 
ATOM     21  O   UNL     1       4.742   2.283   1.588  1.00  0.00    -0.294 OA
ENDBRANCH   2  19
BRANCH   8  22
ATOM     22  O   UNL     1      -0.260   2.319  -0.645  1.00  0.00    -0.426 OA
BRANCH  22  23
ATOM     23  C   UNL     1      -0.473   3.505   0.067  1.00  0.00     0.308 C 
ATOM     24  C   UNL     1       0.045   4.792  -0.476  1.00  0.00     0.139 C 
ATOM     25  O   UNL     1      -1.091   3.497   1.166  1.00  0.00    -0.252 OA
ENDBRANCH  22  23
ENDBRANCH   8  22
BRANCH  12  26
ATOM     26  C   UNL     1      -2.397  -2.797   0.791  1.00  0.00     0.167 C 
ATOM     27  C   UNL     1      -3.519  -2.946   1.772  1.00  0.00     0.094 C 
ATOM     28  O   UNL     1      -1.845  -3.837   0.341  1.00  0.00    -0.294 OA
ENDBRANCH  12  26
BRANCH  11  29
ATOM     29  O   UNL     1      -4.158  -0.561   0.052  1.00  0.00    -0.425 OA
BRANCH  29  30
ATOM     30  C   UNL     1      -4.812  -1.421  -0.837  1.00  0.00     0.308 C 
ATOM     31  C   UNL     1      -6.286  -1.607  -0.726  1.00  0.00     0.139 C 
ATOM     32  O   UNL     1      -4.178  -1.994  -1.765  1.00  0.00    -0.252 OA
ENDBRANCH  29  30
ENDBRANCH  11  29
TORSDOF 7
