REMARK SMILES [S-]c1ncnc2c1cnn2-c1ccccc1
REMARK SMILES IDX 2 1 1 2 3 3 7 4 4 5 6 6 8 7 5 8 10 9 9 10 11 11 12 12 16 13
REMARK SMILES IDX 13 14 15 15 14 16
REMARK H PARENT
ROOT
ATOM      1  C   UNL     1       3.764  -0.142   0.028  1.00  0.00    -0.069 A 
ATOM      2  S   UNL     1       5.271  -1.093   0.295  1.00  0.00    -0.759 S 
ATOM      3  N   UNL     1       3.825   1.128  -0.469  1.00  0.00    -0.265 NA
ATOM      4  C   UNL     1       2.508  -0.666   0.301  1.00  0.00     0.038 A 
ATOM      5  C   UNL     1       2.688   1.861  -0.697  1.00  0.00     0.222 A 
ATOM      6  C   UNL     1       1.395   0.078   0.083  1.00  0.00     0.164 A 
ATOM      7  C   UNL     1       2.054  -1.889   0.747  1.00  0.00     0.146 A 
ATOM      8  N   UNL     1       1.456   1.333  -0.429  1.00  0.00    -0.217 NA
ATOM      9  N   UNL     1       0.297  -0.644   0.378  1.00  0.00    -0.215 N 
ATOM     10  N   UNL     1       0.698  -1.849   0.778  1.00  0.00    -0.174 NA
ENDROOT
BRANCH   9  11
ATOM     11  C   UNL     1      -1.086  -0.257   0.267  1.00  0.00     0.067 A 
ATOM     12  C   UNL     1      -2.066  -1.232   0.010  1.00  0.00     0.028 A 
ATOM     13  C   UNL     1      -1.486   1.081   0.445  1.00  0.00     0.028 A 
ATOM     14  C   UNL     1      -3.413  -0.873  -0.092  1.00  0.00     0.002 A 
ATOM     15  C   UNL     1      -2.835   1.435   0.344  1.00  0.00     0.002 A 
ATOM     16  C   UNL     1      -3.798   0.460   0.072  1.00  0.00     0.000 A 
ENDBRANCH   9  11
TORSDOF 1
