REMARK SMILES O=C(Nc1ccc2ccccc2c1)[C@@H]1CCC=C1O
REMARK SMILES IDX 18 1 17 2 16 3 15 4 14 5 19 6 2 8 3 9 1 10 4 12 5 13 13 14
REMARK SMILES IDX 6 15 12 16 7 17 11 18 8 19 10 20 9 21
REMARK H PARENT 19 7 3 11
ROOT
ATOM      1  C   UNL     1      -3.519   0.903   1.328  1.00  0.00     0.101 C 
ATOM      2  C   UNL     1      -4.130   1.539   0.351  1.00  0.00     0.015 C 
ATOM      3  C   UNL     1      -4.329   0.673  -0.837  1.00  0.00     0.032 C 
ATOM      4  C   UNL     1      -3.813  -0.705  -0.403  1.00  0.00     0.026 C 
ATOM      5  C   UNL     1      -3.197  -0.509   0.995  1.00  0.00     0.144 C 
ENDROOT
BRANCH   1   6
ATOM      6  O   UNL     1      -3.214   1.506   2.544  1.00  0.00    -0.512 OA
ATOM      7  H   UNL     1      -2.745   0.986   3.276  1.00  0.00     0.293 HD
ENDBRANCH   1   6
BRANCH   5   8
ATOM      8  C   UNL     1      -1.707  -0.737   1.003  1.00  0.00     0.235 C 
ATOM      9  N   UNL     1      -0.851  -0.008   0.106  1.00  0.00    -0.325 N 
ATOM     10  O   UNL     1      -1.216  -1.541   1.842  1.00  0.00    -0.274 OA
ATOM     11  H   UNL     1      -1.241   0.839  -0.364  1.00  0.00     0.169 HD
BRANCH   9  12
ATOM     12  C   UNL     1       0.539  -0.310  -0.102  1.00  0.00     0.041 A 
ATOM     13  C   UNL     1       1.010  -1.635  -0.088  1.00  0.00     0.027 A 
ATOM     14  C   UNL     1       1.433   0.733  -0.385  1.00  0.00     0.034 A 
ATOM     15  C   UNL     1       2.361  -1.911  -0.317  1.00  0.00     0.011 A 
ATOM     16  C   UNL     1       2.791   0.467  -0.615  1.00  0.00    -0.016 A 
ATOM     17  C   UNL     1       3.260  -0.868  -0.577  1.00  0.00    -0.018 A 
ATOM     18  C   UNL     1       3.691   1.511  -0.883  1.00  0.00     0.009 A 
ATOM     19  C   UNL     1       4.619  -1.135  -0.808  1.00  0.00     0.009 A 
ATOM     20  C   UNL     1       5.042   1.232  -1.111  1.00  0.00     0.001 A 
ATOM     21  C   UNL     1       5.504  -0.086  -1.073  1.00  0.00     0.001 A 
ENDBRANCH   9  12
ENDBRANCH   5   8
TORSDOF 3
