REMARK SMILES O=[N+]([O-])c1ccc([C@H]2CC(c3ccccc3)=Nc3ccccc3S2)cc1
REMARK SMILES IDX 24 1 8 2 7 4 4 5 5 6 26 7 6 8 25 9 2 10 1 11 3 12 23 13
REMARK SMILES IDX 22 14 18 15 21 16 19 17 20 18 17 19 10 20 9 21 11 23 12 24
REMARK SMILES IDX 16 25 13 26 15 27 14 28
REMARK H PARENT
REMARK Flexibility Score:   84.900
ROOT
ATOM      1  S   UNL     1       0.109   2.444  -0.280  1.00  0.00    -0.115 SA
ENDROOT
BRANCH   1   2
ATOM      2  C   UNL     1       0.926   0.926  -0.924  1.00  0.00     0.088 CG0
ATOM      3  G   UNL     1      -0.049  -0.176  -1.405  1.00  0.00     0.000 G0
BRANCH   2   4
ATOM      4  C   UNL     1       1.880   0.373   0.116  1.00  0.00    -0.034 A 
ATOM      5  C   UNL     1       3.636  -0.790   2.001  1.00  0.00     0.269 A 
ATOM      6  C   UNL     1       2.325  -0.438   2.368  1.00  0.00     0.086 A 
ATOM      7  C   UNL     1       4.059  -0.553   0.683  1.00  0.00     0.086 A 
ATOM      8  C   UNL     1       1.458   0.136   1.436  1.00  0.00     0.012 A 
ATOM      9  C   UNL     1       3.187   0.012  -0.253  1.00  0.00     0.012 A 
BRANCH   5  10
ATOM     10  N   UNL     1       4.532  -1.382   2.958  1.00  0.00     0.062 N 
ATOM     11  O   UNL     1       4.131  -1.692   4.100  1.00  0.00    -0.258 OA
ATOM     12  O   UNL     1       5.852  -1.605   2.638  1.00  0.00    -0.258 OA
ENDBRANCH   5  10
ENDBRANCH   2   4
ENDBRANCH   1   2
BRANCH   1  13
ATOM     13  C   UNL     1      -1.114   2.594  -1.588  1.00  0.00     0.034 A 
ATOM     14  C   UNL     1      -1.013   3.636  -2.517  1.00  0.00     0.017 A 
ATOM     15  C   UNL     1      -2.222   1.724  -1.624  1.00  0.00     0.077 A 
ATOM     16  C   UNL     1      -2.029   3.837  -3.456  1.00  0.00     0.001 A 
ATOM     17  C   UNL     1      -3.249   1.949  -2.549  1.00  0.00     0.029 A 
ATOM     18  C   UNL     1      -3.150   3.000  -3.466  1.00  0.00     0.002 A 
BRANCH  15  19
ATOM     19  N   UNL     1      -2.291   0.589  -0.749  1.00  0.00    -0.252 NA
BRANCH  19  20
ATOM     20  C   UNL     1      -1.323  -0.271  -0.578  1.00  0.00     0.050 C 
BRANCH  20  21
ATOM     21  C   UNL     1      -0.049  -0.176  -1.405  1.00  0.00     0.076 CG0
ATOM     22  G   UNL     1       0.926   0.926  -0.924  1.00  0.00     0.000 G0
ENDBRANCH  20  21
BRANCH  20  23
ATOM     23  C   UNL     1      -1.483  -1.318   0.460  1.00  0.00    -0.004 A 
ATOM     24  C   UNL     1      -2.104  -0.996   1.681  1.00  0.00     0.010 A 
ATOM     25  C   UNL     1      -1.021  -2.633   0.258  1.00  0.00     0.010 A 
ATOM     26  C   UNL     1      -2.240  -1.960   2.684  1.00  0.00     0.001 A 
ATOM     27  C   UNL     1      -1.154  -3.592   1.267  1.00  0.00     0.001 A 
ATOM     28  C   UNL     1      -1.761  -3.256   2.479  1.00  0.00     0.000 A 
ENDBRANCH  20  23
ENDBRANCH  19  20
ENDBRANCH  15  19
ENDBRANCH   1  13
TORSDOF 3
