REMARK SMILES COc1cc2c(cc1O)C[C@@H]1c3c(cc(O)c(OC)c3-2)CC[N@@H+]1C
REMARK SMILES IDX 11 1 23 2 22 3 24 4 10 5 12 6 6 7 13 8 20 9 5 10 7 11 14 12
REMARK SMILES IDX 21 13 17 14 4 15 8 16 15 17 3 18 18 20 19 21 9 22 16 24 2 26
REMARK SMILES IDX 1 27
REMARK H PARENT 23 19 9 23 16 25
ROOT
ATOM      1  C   UNL     1      -1.735  -0.817  -0.741  1.00  0.00     0.220 C 
ATOM      2  N   UNL     1      -3.210  -1.075  -0.773  1.00  0.00    -0.331 N 
ATOM      3  C   UNL     1      -3.908  -0.534   0.407  1.00  0.00     0.267 C 
ATOM      4  C   UNL     1      -3.564  -2.491  -0.980  1.00  0.00     0.333 C 
ATOM      5  C   UNL     1      -0.883  -1.884  -0.005  1.00  0.00     0.106 C 
ATOM      6  C   UNL     1      -1.372   0.544  -0.149  1.00  0.00     0.025 A 
ATOM      7  C   UNL     1       0.583  -1.557  -0.200  1.00  0.00    -0.030 A 
ATOM      8  C   UNL     1      -2.361   1.414   0.356  1.00  0.00    -0.029 A 
ATOM      9  C   UNL     1      -0.002   0.868   0.008  1.00  0.00     0.037 A 
ATOM     10  C   UNL     1       1.003  -0.208  -0.269  1.00  0.00    -0.007 A 
ATOM     11  C   UNL     1       1.518  -2.589  -0.357  1.00  0.00     0.054 A 
ATOM     12  C   UNL     1      -1.996   2.674   0.841  1.00  0.00     0.054 A 
ATOM     13  C   UNL     1      -3.800   0.992   0.417  1.00  0.00     0.097 C 
ATOM     14  C   UNL     1       0.350   2.111   0.595  1.00  0.00     0.168 A 
ATOM     15  C   UNL     1       2.333   0.070  -0.635  1.00  0.00     0.059 A 
ATOM     16  C   UNL     1       2.853  -2.301  -0.648  1.00  0.00     0.157 A 
ATOM     17  C   UNL     1      -0.653   3.029   0.952  1.00  0.00     0.158 A 
ATOM     18  C   UNL     1       3.269  -0.969  -0.806  1.00  0.00     0.161 A 
ATOM     19  H   UNL     1      -3.587  -0.570  -1.613  1.00  0.00     0.348 HD
ENDROOT
BRANCH  14  20
ATOM     20  O   UNL     1       1.679   2.426   0.877  1.00  0.00    -0.492 OA
ATOM     21  C   UNL     1       2.261   2.113   2.136  1.00  0.00     0.278 C 
ENDBRANCH  14  20
BRANCH  16  22
ATOM     22  O   UNL     1       3.752  -3.358  -0.793  1.00  0.00    -0.504 OA
ATOM     23  H   UNL     1       4.731  -3.209  -1.007  1.00  0.00     0.293 HD
ENDBRANCH  16  22
BRANCH  17  24
ATOM     24  O   UNL     1      -0.332   4.289   1.456  1.00  0.00    -0.504 OA
ATOM     25  H   UNL     1       0.625   4.607   1.549  1.00  0.00     0.293 HD
ENDBRANCH  17  24
BRANCH  18  26
ATOM     26  O   UNL     1       4.611  -0.714  -1.134  1.00  0.00    -0.493 OA
ATOM     27  C   UNL     1       5.171   0.585  -1.296  1.00  0.00     0.278 C 
ENDBRANCH  18  26
TORSDOF 4
