REMARK SMILES Nc1c[nH]c(=Nc2ccc(Br)cc2)nc1N
REMARK SMILES IDX 4 1 3 2 2 3 15 4 14 5 5 6 6 8 7 9 8 10 13 11 9 12 12 13
REMARK SMILES IDX 10 14 11 15 1 16 16 19
REMARK H PARENT 4 7 1 17 1 18 16 20 16 21
ROOT
ATOM      1  N   UNL     1      -1.254   2.049   0.663  1.00  0.00    -0.328 N 
ATOM      2  C   UNL     1      -2.594   1.829   0.625  1.00  0.00     0.115 A 
ATOM      3  C   UNL     1      -3.098   0.577   0.258  1.00  0.00     0.091 A 
ATOM      4  C   UNL     1      -2.173  -0.435  -0.079  1.00  0.00     0.152 A 
ATOM      5  N   UNL     1      -0.843  -0.161  -0.020  1.00  0.00    -0.194 NA
ATOM      6  C   UNL     1      -0.373   1.065   0.338  1.00  0.00     0.229 A 
ATOM      7  H   UNL     1      -0.903   2.992   0.949  1.00  0.00     0.169 HD
ENDROOT
BRANCH   6   8
ATOM      8  N   UNL     1       0.906   1.300   0.410  1.00  0.00    -0.213 NA
BRANCH   8   9
ATOM      9  C   UNL     1       1.972   0.402   0.059  1.00  0.00     0.067 A 
ATOM     10  C   UNL     1       3.155   0.436   0.809  1.00  0.00     0.029 A 
ATOM     11  C   UNL     1       1.895  -0.446  -1.064  1.00  0.00     0.029 A 
ATOM     12  C   UNL     1       4.227  -0.399   0.480  1.00  0.00     0.018 A 
ATOM     13  C   UNL     1       2.969  -1.279  -1.391  1.00  0.00     0.018 A 
ATOM     14  C   UNL     1       4.133  -1.261  -0.617  1.00  0.00     0.018 A 
ATOM     15  Br  UNL     1       5.600  -2.398  -1.068  1.00  0.00    -0.051 Br
ENDBRANCH   8   9
ENDBRANCH   6   8
BRANCH   3  16
ATOM     16  N   UNL     1      -4.516   0.364   0.259  1.00  0.00    -0.395 N 
ATOM     17  H   UNL     1      -4.948  -0.575   0.131  1.00  0.00     0.156 HD
ATOM     18  H   UNL     1      -5.166   1.157   0.460  1.00  0.00     0.156 HD
ENDBRANCH   3  16
BRANCH   4  19
ATOM     19  N   UNL     1      -2.582  -1.741  -0.498  1.00  0.00    -0.382 N 
ATOM     20  H   UNL     1      -3.573  -1.992  -0.696  1.00  0.00     0.158 HD
ATOM     21  H   UNL     1      -1.858  -2.469  -0.686  1.00  0.00     0.158 HD
ENDBRANCH   4  19
TORSDOF 4
