REMARK SMILES CCOC(=O)c1ccc(NC(=O)N2C[C@H](C)O[C@@H](C)C2)cc1
REMARK SMILES IDX 4 1 5 2 3 3 2 4 1 5 6 6 7 7 22 8 8 9 21 10 9 11 10 12 11 13
REMARK SMILES IDX 13 14 14 15 20 16 15 17 18 18 17 19 12 21 16 22 19 23
REMARK H PARENT 10 20
ROOT
ATOM      1  C   UNL     1       5.101  -0.606  -0.834  1.00  0.00     0.338 C 
ATOM      2  O   UNL     1       5.583  -0.278  -1.954  1.00  0.00    -0.246 OA
ENDROOT
BRANCH   1   3
ATOM      3  O   UNL     1       5.937  -1.114   0.169  1.00  0.00    -0.462 OA
BRANCH   3   4
ATOM      4  C   UNL     1       7.351  -1.236   0.028  1.00  0.00     0.230 C 
ATOM      5  C   UNL     1       8.025   0.124   0.164  1.00  0.00     0.049 C 
ENDBRANCH   3   4
ENDBRANCH   1   3
BRANCH   1   6
ATOM      6  C   UNL     1       3.651  -0.462  -0.579  1.00  0.00     0.060 A 
ATOM      7  C   UNL     1       3.109  -0.827   0.664  1.00  0.00     0.018 A 
ATOM      8  C   UNL     1       2.792   0.035  -1.576  1.00  0.00     0.018 A 
ATOM      9  C   UNL     1       1.740  -0.692   0.909  1.00  0.00     0.027 A 
ATOM     10  C   UNL     1       1.423   0.171  -1.330  1.00  0.00     0.027 A 
ATOM     11  C   UNL     1       0.887  -0.176  -0.077  1.00  0.00     0.042 A 
BRANCH  11  12
ATOM     12  N   UNL     1      -0.521  -0.067   0.192  1.00  0.00    -0.308 N 
ATOM     13  C   UNL     1      -1.375   0.925  -0.399  1.00  0.00     0.322 C 
ATOM     14  N   UNL     1      -2.804   0.743  -0.412  1.00  0.00    -0.319 N 
ATOM     15  C   UNL     1      -3.688   1.893  -0.605  1.00  0.00     0.153 C 
ATOM     16  C   UNL     1      -3.380  -0.580  -0.661  1.00  0.00     0.153 C 
ATOM     17  C   UNL     1      -5.043   1.643   0.082  1.00  0.00     0.135 C 
ATOM     18  C   UNL     1      -4.723  -0.699   0.076  1.00  0.00     0.135 C 
ATOM     19  O   UNL     1      -5.590   0.375  -0.258  1.00  0.00    -0.372 OA
ATOM     20  H   UNL     1      -0.926  -0.671   0.943  1.00  0.00     0.171 HD
ATOM     21  O   UNL     1      -0.876   1.989  -0.858  1.00  0.00    -0.248 OA
ATOM     22  C   UNL     1      -4.978   1.869   1.602  1.00  0.00     0.040 C 
ATOM     23  C   UNL     1      -5.411  -2.013  -0.292  1.00  0.00     0.040 C 
ENDBRANCH  11  12
ENDBRANCH   1   6
TORSDOF 4
