REMARK SMILES N#C[C@H]1C(=O)N[C@@H](c2ccccc2O)SC1=Nc1ccccc1Cl
REMARK SMILES IDX 3 1 4 2 5 3 6 4 7 5 15 6 16 7 2 9 1 10 17 11 18 12 19 13
REMARK SMILES IDX 23 14 20 15 22 16 21 17 24 18 8 19 9 20 13 21 10 22 12 23
REMARK SMILES IDX 11 24 14 25
REMARK H PARENT 6 8 14 26
ROOT
ATOM      1  C   UNL     1       0.463  -3.151  -0.454  1.00  0.00     0.237 C 
ATOM      2  C   UNL     1      -0.943  -2.953  -0.965  1.00  0.00     0.245 C 
ATOM      3  O   UNL     1      -1.496  -3.896  -1.593  1.00  0.00    -0.273 OA
ATOM      4  N   UNL     1      -1.697  -1.756  -0.701  1.00  0.00    -0.338 N 
ATOM      5  C   UNL     1      -1.081  -0.475  -0.331  1.00  0.00     0.180 C 
ATOM      6  S   UNL     1       0.207  -0.722   0.944  1.00  0.00    -0.079 SA
ATOM      7  C   UNL     1       1.105  -1.838  -0.141  1.00  0.00     0.103 C 
ATOM      8  H   UNL     1      -2.711  -1.764  -0.957  1.00  0.00     0.165 HD
ENDROOT
BRANCH   1   9
ATOM      9  C   UNL     1       0.434  -3.986   0.753  1.00  0.00     0.083 C 
ATOM     10  N   UNL     1       0.412  -4.645   1.705  1.00  0.00    -0.197 NA
ENDBRANCH   1   9
BRANCH   7  11
ATOM     11  N   UNL     1       2.155  -1.460  -0.812  1.00  0.00    -0.243 NA
BRANCH  11  12
ATOM     12  C   UNL     1       2.855  -0.217  -0.656  1.00  0.00     0.083 A 
ATOM     13  C   UNL     1       3.260   0.232   0.614  1.00  0.00     0.030 A 
ATOM     14  C   UNL     1       3.217   0.522  -1.796  1.00  0.00     0.066 A 
ATOM     15  C   UNL     1       3.974   1.426   0.745  1.00  0.00     0.002 A 
ATOM     16  C   UNL     1       3.932   1.718  -1.657  1.00  0.00     0.023 A 
ATOM     17  C   UNL     1       4.305   2.171  -0.389  1.00  0.00     0.002 A 
ATOM     18  Cl  UNL     1       2.758  -0.022  -3.403  1.00  0.00    -0.082 Cl
ENDBRANCH  11  12
ENDBRANCH   7  11
BRANCH   5  19
ATOM     19  C   UNL     1      -2.144   0.491   0.165  1.00  0.00     0.027 A 
ATOM     20  C   UNL     1      -2.707   0.286   1.442  1.00  0.00     0.010 A 
ATOM     21  C   UNL     1      -2.638   1.563  -0.630  1.00  0.00     0.121 A 
ATOM     22  C   UNL     1      -3.666   1.163   1.952  1.00  0.00     0.001 A 
ATOM     23  C   UNL     1      -3.586   2.444  -0.093  1.00  0.00     0.046 A 
ATOM     24  C   UNL     1      -4.095   2.249   1.191  1.00  0.00     0.004 A 
BRANCH  21  25
ATOM     25  O   UNL     1      -2.238   1.782  -1.951  1.00  0.00    -0.508 OA
ATOM     26  H   UNL     1      -1.696   1.129  -2.498  1.00  0.00     0.293 HD
ENDBRANCH  21  25
ENDBRANCH   5  19
TORSDOF 5
