REMARK SMILES O=C(Nc1ccccc1-c1ccccc1)C(=O)Nc1ccccc1-c1ccccc1
REMARK SMILES IDX 1 1 2 2 3 3 16 5 18 6 17 7 19 9 20 10 24 11 21 12 23 13
REMARK SMILES IDX 22 14 25 15 26 16 30 17 27 18 29 19 28 20 4 21 5 22 9 23
REMARK SMILES IDX 6 24 8 25 7 26 10 27 11 28 15 29 12 30 14 31 13 32
REMARK H PARENT 3 4 18 8
ROOT
ATOM      1  O   UNL     1      -0.278  -0.686  -2.443  1.00  0.00    -0.263 OA
ATOM      2  C   UNL     1      -0.278  -0.559  -1.189  1.00  0.00     0.314 C 
ATOM      3  N   UNL     1      -1.220   0.318  -0.553  1.00  0.00    -0.317 N 
ATOM      4  H   UNL     1      -1.399   0.203   0.470  1.00  0.00     0.170 HD
ENDROOT
BRANCH   2   5
ATOM      5  C   UNL     1       0.698  -1.314  -0.384  1.00  0.00     0.314 C 
ATOM      6  N   UNL     1       1.656  -2.170  -1.023  1.00  0.00    -0.317 N 
ATOM      7  O   UNL     1       0.703  -1.190   0.871  1.00  0.00    -0.263 OA
ATOM      8  H   UNL     1       1.414  -2.596  -1.946  1.00  0.00     0.170 HD
BRANCH   6   9
ATOM      9  C   UNL     1       2.873  -2.583  -0.381  1.00  0.00     0.049 A 
ATOM     10  C   UNL     1       3.194  -3.949  -0.363  1.00  0.00     0.027 A 
ATOM     11  C   UNL     1       3.755  -1.650   0.224  1.00  0.00     0.005 A 
ATOM     12  C   UNL     1       4.344  -4.398   0.290  1.00  0.00     0.002 A 
ATOM     13  C   UNL     1       4.901  -2.122   0.887  1.00  0.00     0.011 A 
ATOM     14  C   UNL     1       5.190  -3.487   0.922  1.00  0.00     0.001 A 
BRANCH  11  15
ATOM     15  C   UNL     1       3.530  -0.186   0.132  1.00  0.00    -0.016 A 
ATOM     16  C   UNL     1       3.302   0.425  -1.115  1.00  0.00     0.009 A 
ATOM     17  C   UNL     1       3.537   0.607   1.293  1.00  0.00     0.009 A 
ATOM     18  C   UNL     1       3.057   1.799  -1.192  1.00  0.00     0.001 A 
ATOM     19  C   UNL     1       3.296   1.981   1.209  1.00  0.00     0.001 A 
ATOM     20  C   UNL     1       3.052   2.576  -0.032  1.00  0.00     0.000 A 
ENDBRANCH  11  15
ENDBRANCH   6   9
ENDBRANCH   2   5
BRANCH   3  21
ATOM     21  C   UNL     1      -1.960   1.325  -1.266  1.00  0.00     0.049 A 
ATOM     22  C   UNL     1      -1.316   2.112  -2.238  1.00  0.00     0.027 A 
ATOM     23  C   UNL     1      -3.309   1.602  -0.932  1.00  0.00     0.005 A 
ATOM     24  C   UNL     1      -1.998   3.147  -2.880  1.00  0.00     0.002 A 
ATOM     25  C   UNL     1      -3.977   2.655  -1.582  1.00  0.00     0.011 A 
ATOM     26  C   UNL     1      -3.325   3.418  -2.552  1.00  0.00     0.001 A 
BRANCH  23  27
ATOM     27  C   UNL     1      -4.046   0.789   0.065  1.00  0.00    -0.016 A 
ATOM     28  C   UNL     1      -4.736   1.414   1.119  1.00  0.00     0.009 A 
ATOM     29  C   UNL     1      -4.085  -0.613  -0.044  1.00  0.00     0.009 A 
ATOM     30  C   UNL     1      -5.439   0.648   2.054  1.00  0.00     0.001 A 
ATOM     31  C   UNL     1      -4.788  -1.374   0.894  1.00  0.00     0.001 A 
ATOM     32  C   UNL     1      -5.463  -0.745   1.943  1.00  0.00     0.000 A 
ENDBRANCH  23  27
ENDBRANCH   3  21
TORSDOF 5
