REMARK SMILES CC[C@H]([NH3+])Cc1c[nH]c2ccccc12
REMARK SMILES IDX 3 1 4 2 2 6 1 7 5 8 6 9 7 10 14 11 8 12 13 13 9 14 12 15
REMARK SMILES IDX 10 16 11 17
REMARK H PARENT 4 3 4 4 4 5 8 18
ROOT
ATOM      1  C   UNL     1      -1.705   0.335   0.290  1.00  0.00     0.185 C 
ENDROOT
BRANCH   1   2
ATOM      2  N   UNL     1      -1.686   1.311   1.390  1.00  0.00    -0.355 N 
ATOM      3  H   UNL     1      -0.720   1.405   1.776  1.00  0.00     0.344 HD
ATOM      4  H   UNL     1      -2.019   2.245   1.058  1.00  0.00     0.344 HD
ATOM      5  H   UNL     1      -2.304   0.985   2.169  1.00  0.00     0.344 HD
ENDBRANCH   1   2
BRANCH   1   6
ATOM      6  C   UNL     1      -3.161   0.113  -0.186  1.00  0.00     0.062 C 
ATOM      7  C   UNL     1      -3.321  -1.128  -1.067  1.00  0.00     0.010 C 
ENDBRANCH   1   6
BRANCH   1   8
ATOM      8  C   UNL     1      -0.803   0.810  -0.875  1.00  0.00     0.102 C 
BRANCH   8   9
ATOM      9  C   UNL     1       0.642   0.876  -0.472  1.00  0.00    -0.017 A 
ATOM     10  C   UNL     1       1.360   2.018  -0.129  1.00  0.00     0.087 A 
ATOM     11  C   UNL     1       1.516  -0.180  -0.304  1.00  0.00     0.003 A 
ATOM     12  N   UNL     1       2.624   1.692   0.227  1.00  0.00    -0.361 N 
ATOM     13  C   UNL     1       1.348  -1.553  -0.483  1.00  0.00     0.010 A 
ATOM     14  C   UNL     1       2.707   0.354   0.118  1.00  0.00     0.046 A 
ATOM     15  C   UNL     1       2.449  -2.388  -0.217  1.00  0.00     0.001 A 
ATOM     16  C   UNL     1       3.814  -0.449   0.389  1.00  0.00     0.026 A 
ATOM     17  C   UNL     1       3.676  -1.839   0.216  1.00  0.00     0.002 A 
ATOM     18  H   UNL     1       3.376   2.348   0.533  1.00  0.00     0.166 HD
ENDBRANCH   8   9
ENDBRANCH   1   8
TORSDOF 4
