REMARK SMILES CCOc1nsc(OCC)n1
REMARK SMILES IDX 4 1 5 2 6 3 7 4 11 5 3 6 2 7 1 8 8 9 9 10 10 11
REMARK H PARENT
ROOT
ATOM      1  C   UNL     1      -1.111  -0.116   0.067  1.00  0.00     0.331 A 
ATOM      2  N   UNL     1      -0.928  -1.036   1.058  1.00  0.00    -0.132 NA
ATOM      3  S   UNL     1       0.718  -1.114   1.272  1.00  0.00     0.028 S 
ATOM      4  C   UNL     1       1.130   0.008   0.115  1.00  0.00     0.296 A 
ATOM      5  N   UNL     1       0.005   0.471  -0.466  1.00  0.00    -0.147 NA
ENDROOT
BRANCH   1   6
ATOM      6  O   UNL     1      -2.383   0.226  -0.398  1.00  0.00    -0.463 OA
BRANCH   6   7
ATOM      7  C   UNL     1      -3.573  -0.356   0.125  1.00  0.00     0.230 C 
ATOM      8  C   UNL     1      -4.782   0.226  -0.589  1.00  0.00     0.049 C 
ENDBRANCH   6   7
ENDBRANCH   1   6
BRANCH   4   9
ATOM      9  O   UNL     1       2.413   0.433  -0.234  1.00  0.00    -0.469 OA
BRANCH   9  10
ATOM     10  C   UNL     1       3.586  -0.072   0.396  1.00  0.00     0.229 C 
ATOM     11  C   UNL     1       4.814   0.589  -0.208  1.00  0.00     0.049 C 
ENDBRANCH   9  10
ENDBRANCH   4   9
TORSDOF 4
