REMARK SMILES CC[N@@H+]1CCc2ccccc2C1
REMARK SMILES IDX 3 1 4 2 12 3 5 4 6 5 7 6 11 7 8 8 10 9 9 10 2 12 1 13
REMARK H PARENT 3 11
ROOT
ATOM      1  N   UNL     1       1.200  -0.091   0.655  1.00  0.00    -0.331 N 
ATOM      2  C   UNL     1       0.979  -1.325  -0.129  1.00  0.00     0.267 C 
ATOM      3  C   UNL     1       0.390   1.022   0.111  1.00  0.00     0.299 C 
ATOM      4  C   UNL     1      -0.462  -1.822   0.048  1.00  0.00     0.097 C 
ATOM      5  C   UNL     1      -1.467  -0.704  -0.082  1.00  0.00    -0.034 A 
ATOM      6  C   UNL     1      -2.828  -1.018  -0.219  1.00  0.00     0.004 A 
ATOM      7  C   UNL     1      -1.072   0.649   0.022  1.00  0.00     0.010 A 
ATOM      8  C   UNL     1      -3.784  -0.001  -0.288  1.00  0.00     0.000 A 
ATOM      9  C   UNL     1      -2.040   1.662  -0.065  1.00  0.00     0.010 A 
ATOM     10  C   UNL     1      -3.391   1.336  -0.213  1.00  0.00     0.001 A 
ATOM     11  H   UNL     1       0.869  -0.268   1.634  1.00  0.00     0.348 HD
ENDROOT
BRANCH   1  12
ATOM     12  C   UNL     1       2.637   0.261   0.778  1.00  0.00     0.259 C 
ATOM     13  C   UNL     1       3.370   0.476  -0.556  1.00  0.00     0.071 C 
ENDBRANCH   1  12
TORSDOF 1
