REMARK SMILES CC(C)NC(=O)Nc1cccc(Cl)c1
REMARK SMILES IDX 4 1 5 2 6 3 7 4 2 7 1 8 3 9 8 10 9 11 14 12 10 13 12 14
REMARK SMILES IDX 11 15 13 16
REMARK H PARENT 4 5 7 6
ROOT
ATOM      1  N   UNL     1       1.757  -0.350  -0.624  1.00  0.00    -0.336 N 
ATOM      2  C   UNL     1       0.454  -0.020  -0.124  1.00  0.00     0.319 C 
ATOM      3  O   UNL     1       0.315   0.366   1.069  1.00  0.00    -0.248 OA
ATOM      4  N   UNL     1      -0.682  -0.096  -0.999  1.00  0.00    -0.308 N 
ATOM      5  H   UNL     1       1.832  -0.707  -1.604  1.00  0.00     0.165 HD
ATOM      6  H   UNL     1      -0.497  -0.142  -2.027  1.00  0.00     0.171 HD
ENDROOT
BRANCH   1   7
ATOM      7  C   UNL     1       2.966  -0.247   0.201  1.00  0.00     0.077 C 
ATOM      8  C   UNL     1       4.099  -1.077  -0.411  1.00  0.00     0.030 C 
ATOM      9  C   UNL     1       3.388   1.219   0.333  1.00  0.00     0.030 C 
ENDBRANCH   1   7
BRANCH   4  10
ATOM     10  C   UNL     1      -2.047   0.008  -0.561  1.00  0.00     0.044 A 
ATOM     11  C   UNL     1      -2.999   0.596  -1.409  1.00  0.00     0.026 A 
ATOM     12  C   UNL     1      -2.465  -0.521   0.674  1.00  0.00     0.046 A 
ATOM     13  C   UNL     1      -4.337   0.689  -1.016  1.00  0.00     0.004 A 
ATOM     14  C   UNL     1      -3.806  -0.427   1.066  1.00  0.00     0.043 A 
ATOM     15  C   UNL     1      -4.740   0.182   0.222  1.00  0.00     0.020 A 
ATOM     16  Cl  UNL     1      -4.318  -1.086   2.609  1.00  0.00    -0.084 Cl
ENDBRANCH   4  10
TORSDOF 2
