REMARK SMILES N=c1cc(Nc2ccc(Br)cc2)[nH]c(N)n1
REMARK SMILES IDX 13 1 4 2 3 3 2 4 16 5 14 6 5 8 6 10 7 11 12 12 8 13 11 14
REMARK SMILES IDX 9 15 10 16 15 17 1 20
REMARK H PARENT 13 7 5 9 15 18 15 19 1 21
ROOT
ATOM      1  N   UNL     1      -2.171   0.494  -0.962  1.00  0.00    -0.312 N 
ATOM      2  C   UNL     1      -1.049  -0.068  -0.432  1.00  0.00     0.114 A 
ATOM      3  C   UNL     1      -1.110  -0.657   0.839  1.00  0.00     0.093 A 
ATOM      4  C   UNL     1      -2.319  -0.615   1.543  1.00  0.00     0.152 A 
ATOM      5  N   UNL     1      -3.402  -0.024   0.980  1.00  0.00    -0.196 NA
ATOM      6  C   UNL     1      -3.340   0.526  -0.261  1.00  0.00     0.200 A 
ATOM      7  H   UNL     1      -2.132   0.917  -1.917  1.00  0.00     0.171 HD
ENDROOT
BRANCH   2   8
ATOM      8  N   UNL     1       0.158  -0.107  -1.213  1.00  0.00    -0.342 N 
ATOM      9  H   UNL     1       0.061  -0.152  -2.252  1.00  0.00     0.168 HD
BRANCH   8  10
ATOM     10  C   UNL     1       1.486  -0.084  -0.662  1.00  0.00     0.040 A 
ATOM     11  C   UNL     1       1.776   0.621   0.521  1.00  0.00     0.027 A 
ATOM     12  C   UNL     1       2.530  -0.721  -1.351  1.00  0.00     0.027 A 
ATOM     13  C   UNL     1       3.081   0.652   1.022  1.00  0.00     0.018 A 
ATOM     14  C   UNL     1       3.834  -0.688  -0.847  1.00  0.00     0.018 A 
ATOM     15  C   UNL     1       4.110  -0.005   0.341  1.00  0.00     0.018 A 
ATOM     16  Br  UNL     1       5.892   0.041   1.026  1.00  0.00    -0.051 Br
ENDBRANCH   8  10
ENDBRANCH   2   8
BRANCH   6  17
ATOM     17  N   UNL     1      -4.502   1.134  -0.825  1.00  0.00    -0.369 N 
ATOM     18  H   UNL     1      -5.397   1.157  -0.288  1.00  0.00     0.159 HD
ATOM     19  H   UNL     1      -4.473   1.561  -1.778  1.00  0.00     0.159 HD
ENDBRANCH   6  17
BRANCH   4  20
ATOM     20  N   UNL     1      -2.421  -1.138   2.724  1.00  0.00    -0.283 NA
ATOM     21  H   UNL     1      -1.617  -1.606   3.201  1.00  0.00     0.189 HD
ENDBRANCH   4  20
TORSDOF 4
