REMARK SMILES c1cnc2ccc3ncccc3c2c1
REMARK SMILES IDX 1 1 2 2 3 3 4 4 5 5 6 6 7 7 8 8 9 9 10 10 11 11 12 12 13 13
REMARK SMILES IDX 14 14
REMARK H PARENT
ROOT
ATOM      1  C   UNL     1       2.773  -1.506   0.296  1.00  0.00     0.021 A 
ATOM      2  C   UNL     1       3.491  -0.318   0.187  1.00  0.00     0.112 A 
ATOM      3  N   UNL     1       2.836   0.858   0.020  1.00  0.00    -0.256 NA
ATOM      4  C   UNL     1       1.478   0.925  -0.046  1.00  0.00     0.071 A 
ATOM      5  C   UNL     1       0.869   2.169  -0.218  1.00  0.00     0.031 A 
ATOM      6  C   UNL     1      -0.517   2.271  -0.289  1.00  0.00     0.031 A 
ATOM      7  C   UNL     1      -1.316   1.130  -0.189  1.00  0.00     0.071 A 
ATOM      8  N   UNL     1      -2.668   1.261  -0.262  1.00  0.00    -0.256 NA
ATOM      9  C   UNL     1      -3.501   0.194  -0.172  1.00  0.00     0.112 A 
ATOM     10  C   UNL     1      -2.978  -1.085   0.000  1.00  0.00     0.021 A 
ATOM     11  C   UNL     1      -1.596  -1.260   0.080  1.00  0.00     0.012 A 
ATOM     12  C   UNL     1      -0.726  -0.151  -0.013  1.00  0.00     0.010 A 
ATOM     13  C   UNL     1       0.694  -0.255   0.060  1.00  0.00     0.010 A 
ATOM     14  C   UNL     1       1.379  -1.479   0.233  1.00  0.00     0.012 A 
ENDROOT
TORSDOF 0
