REMARK SMILES O=C1NC(=O)C(=Cc2cccc([N+](=O)[O-])c2)N1
REMARK SMILES IDX 8 1 9 2 10 3 11 4 12 5 16 6 7 7 6 8 17 9 2 10 3 11 4 12 1 14
REMARK SMILES IDX 5 16 13 17 14 18 15 19
REMARK H PARENT 17 13 3 15
ROOT
ATOM      1  C   UNL     1      -0.499  -0.893   0.036  1.00  0.00    -0.017 A 
ATOM      2  C   UNL     1      -1.317  -1.757   0.777  1.00  0.00     0.009 A 
ATOM      3  C   UNL     1      -2.673  -1.472   0.946  1.00  0.00     0.008 A 
ATOM      4  C   UNL     1      -3.231  -0.333   0.361  1.00  0.00     0.085 A 
ATOM      5  C   UNL     1      -2.437   0.532  -0.412  1.00  0.00     0.270 A 
ATOM      6  C   UNL     1      -1.070   0.237  -0.578  1.00  0.00     0.093 A 
ENDROOT
BRANCH   1   7
ATOM      7  C   UNL     1       0.924  -1.238  -0.155  1.00  0.00     0.040 C 
BRANCH   7   8
ATOM      8  C   UNL     1       1.927  -0.353  -0.076  1.00  0.00     0.109 C 
ATOM      9  N   UNL     1       1.810   1.018   0.308  1.00  0.00    -0.303 N 
ATOM     10  C   UNL     1       3.151   1.503   0.328  1.00  0.00     0.326 C 
ATOM     11  N   UNL     1       4.117   0.521  -0.033  1.00  0.00    -0.272 N 
ATOM     12  C   UNL     1       3.343  -0.645  -0.275  1.00  0.00     0.275 C 
ATOM     13  H   UNL     1       0.969   1.520   0.669  1.00  0.00     0.172 HD
ATOM     14  O   UNL     1       3.454   2.680   0.655  1.00  0.00    -0.248 OA
ATOM     15  H   UNL     1       5.155   0.624  -0.074  1.00  0.00     0.175 HD
ATOM     16  O   UNL     1       3.833  -1.758  -0.604  1.00  0.00    -0.267 OA
ENDBRANCH   7   8
ENDBRANCH   1   7
BRANCH   5  17
ATOM     17  N   UNL     1      -3.018   1.695  -1.030  1.00  0.00     0.062 N 
ATOM     18  O   UNL     1      -2.317   2.473  -1.710  1.00  0.00    -0.258 OA
ATOM     19  O   UNL     1      -4.357   1.972  -0.876  1.00  0.00    -0.258 OA
ENDBRANCH   5  17
TORSDOF 3
