REMARK SMILES Nc1n[nH]c(Nc2ccccc2)n1
REMARK SMILES IDX 4 1 3 2 2 3 13 4 5 5 6 7 7 9 8 10 12 11 9 12 11 13 10 14
REMARK SMILES IDX 1 15
REMARK H PARENT 4 6 6 8 1 16 1 17
ROOT
ATOM      1  N   UNL     1       2.377  -1.255   1.153  1.00  0.00    -0.243 N 
ATOM      2  N   UNL     1       3.478  -0.608   0.820  1.00  0.00    -0.134 NA
ATOM      3  C   UNL     1       3.086   0.338  -0.055  1.00  0.00     0.241 A 
ATOM      4  N   UNL     1       1.759   0.324  -0.304  1.00  0.00    -0.176 NA
ATOM      5  C   UNL     1       1.355  -0.690   0.489  1.00  0.00     0.224 A 
ATOM      6  H   UNL     1       2.334  -2.062   1.814  1.00  0.00     0.194 HD
ENDROOT
BRANCH   5   7
ATOM      7  N   UNL     1       0.006  -1.170   0.565  1.00  0.00    -0.325 N 
ATOM      8  H   UNL     1      -0.146  -2.113   0.989  1.00  0.00     0.170 HD
BRANCH   7   9
ATOM      9  C   UNL     1      -1.123  -0.493  -0.014  1.00  0.00     0.041 A 
ATOM     10  C   UNL     1      -2.197  -1.248  -0.510  1.00  0.00     0.026 A 
ATOM     11  C   UNL     1      -1.202   0.912  -0.042  1.00  0.00     0.026 A 
ATOM     12  C   UNL     1      -3.316  -0.612  -1.059  1.00  0.00     0.002 A 
ATOM     13  C   UNL     1      -2.322   1.544  -0.591  1.00  0.00     0.002 A 
ATOM     14  C   UNL     1      -3.376   0.783  -1.103  1.00  0.00     0.000 A 
ENDBRANCH   7   9
ENDBRANCH   5   7
BRANCH   3  15
ATOM     15  N   UNL     1       3.985   1.259  -0.666  1.00  0.00    -0.366 N 
ATOM     16  H   UNL     1       3.631   1.973  -1.340  1.00  0.00     0.159 HD
ATOM     17  H   UNL     1       5.005   1.227  -0.442  1.00  0.00     0.159 HD
ENDBRANCH   3  15
TORSDOF 3
