REMARK SMILES CCOC(=O)c1c[nH]nc1O
REMARK SMILES IDX 4 1 5 2 6 3 10 4 9 5 8 6 7 7 11 9 3 11 2 12 1 13
REMARK H PARENT 8 8 11 10
ROOT
ATOM      1  C   UNL     1      -0.045   0.215  -0.409  1.00  0.00     0.345 C 
ATOM      2  O   UNL     1      -0.406   1.269  -0.999  1.00  0.00    -0.246 OA
ENDROOT
BRANCH   1   3
ATOM      3  C   UNL     1       1.366   0.007  -0.046  1.00  0.00     0.141 A 
ATOM      4  C   UNL     1       2.468   0.828  -0.245  1.00  0.00     0.244 A 
ATOM      5  N   UNL     1       3.573   0.240   0.249  1.00  0.00    -0.137 NA
ATOM      6  N   UNL     1       3.208  -0.927   0.755  1.00  0.00    -0.281 N 
ATOM      7  C   UNL     1       1.883  -1.102   0.595  1.00  0.00     0.125 A 
ATOM      8  H   UNL     1       3.864  -1.600   1.208  1.00  0.00     0.189 HD
BRANCH   4   9
ATOM      9  O   UNL     1       2.490   2.080  -0.855  1.00  0.00    -0.492 OA
ATOM     10  H   UNL     1       1.658   2.519  -1.224  1.00  0.00     0.295 HD
ENDBRANCH   4   9
ENDBRANCH   1   3
BRANCH   1  11
ATOM     11  O   UNL     1      -0.982  -0.777  -0.098  1.00  0.00    -0.462 OA
BRANCH  11  12
ATOM     12  C   UNL     1      -2.379  -0.651  -0.360  1.00  0.00     0.230 C 
ATOM     13  C   UNL     1      -3.035   0.279   0.653  1.00  0.00     0.049 C 
ENDBRANCH  11  12
ENDBRANCH   1  11
TORSDOF 4
