REMARK SMILES Cc1[nH]c2ccccc2c1CCCO
REMARK SMILES IDX 12 1 11 2 10 3 2 4 3 5 4 6 9 7 5 8 8 9 6 10 7 11 1 12 13 14
REMARK SMILES IDX 14 15
REMARK H PARENT 3 13 14 16
ROOT
ATOM      1  C   UNL     1      -2.185   0.061   0.341  1.00  0.00     0.033 C 
ENDROOT
BRANCH   1   2
ATOM      2  C   UNL     1      -1.244  -0.001  -0.868  1.00  0.00     0.040 C 
BRANCH   2   3
ATOM      3  C   UNL     1       0.150  -0.347  -0.430  1.00  0.00    -0.020 A 
ATOM      4  C   UNL     1       0.720  -1.617  -0.335  1.00  0.00     0.016 A 
ATOM      5  N   UNL     1       1.977  -1.543   0.163  1.00  0.00    -0.358 N 
ATOM      6  C   UNL     1       2.200  -0.239   0.402  1.00  0.00     0.046 A 
ATOM      7  C   UNL     1       1.109   0.520   0.061  1.00  0.00     0.003 A 
ATOM      8  C   UNL     1       3.351   0.335   0.940  1.00  0.00     0.026 A 
ATOM      9  C   UNL     1       1.091   1.904   0.241  1.00  0.00     0.010 A 
ATOM     10  C   UNL     1       3.366   1.729   1.128  1.00  0.00     0.002 A 
ATOM     11  C   UNL     1       2.241   2.510   0.781  1.00  0.00     0.001 A 
ATOM     12  C   UNL     1       0.062  -2.901  -0.731  1.00  0.00     0.064 C 
ATOM     13  H   UNL     1       2.635  -2.335   0.338  1.00  0.00     0.166 HD
ENDBRANCH   2   3
ENDBRANCH   1   2
BRANCH   1  14
ATOM     14  C   UNL     1      -3.631   0.349  -0.074  1.00  0.00     0.156 C 
BRANCH  14  15
ATOM     15  O   UNL     1      -3.751   1.648  -0.589  1.00  0.00    -0.396 OA
ATOM     16  H   UNL     1      -3.608   1.583  -1.570  1.00  0.00     0.210 HD
ENDBRANCH  14  15
ENDBRANCH   1  14
TORSDOF 4
