REMARK SMILES N=c1[nH]c(N)cc(=Nc2ccc(Br)cc2)[nH]1
REMARK SMILES IDX 3 1 4 2 6 3 7 4 16 5 2 6 5 9 1 12 8 14 9 15 10 16 15 17
REMARK SMILES IDX 11 18 14 19 12 20 13 21
REMARK H PARENT 3 7 16 8 5 10 5 11 1 13
ROOT
ATOM      1  N   UNL     1      -3.380  -0.166   0.242  1.00  0.00    -0.313 N 
ATOM      2  C   UNL     1      -2.476   0.607  -0.420  1.00  0.00     0.106 A 
ATOM      3  C   UNL     1      -1.114   0.313  -0.330  1.00  0.00     0.091 A 
ATOM      4  C   UNL     1      -0.703  -0.779   0.458  1.00  0.00     0.136 A 
ATOM      5  N   UNL     1      -1.650  -1.534   1.082  1.00  0.00    -0.311 N 
ATOM      6  C   UNL     1      -2.978  -1.233   0.985  1.00  0.00     0.199 A 
ATOM      7  H   UNL     1      -4.399   0.059   0.171  1.00  0.00     0.171 HD
ATOM      8  H   UNL     1      -1.348  -2.357   1.654  1.00  0.00     0.171 HD
ENDROOT
BRANCH   2   9
ATOM      9  N   UNL     1      -2.921   1.712  -1.212  1.00  0.00    -0.385 N 
ATOM     10  H   UNL     1      -3.938   1.936  -1.287  1.00  0.00     0.158 HD
ATOM     11  H   UNL     1      -2.239   2.313  -1.726  1.00  0.00     0.158 HD
ENDBRANCH   2   9
BRANCH   6  12
ATOM     12  N   UNL     1      -3.862  -1.958   1.596  1.00  0.00    -0.269 NA
ATOM     13  H   UNL     1      -3.598  -2.785   2.177  1.00  0.00     0.191 HD
ENDBRANCH   6  12
BRANCH   4  14
ATOM     14  N   UNL     1       0.552  -1.119   0.581  1.00  0.00    -0.231 NA
BRANCH  14  15
ATOM     15  C   UNL     1       1.704  -0.417   0.091  1.00  0.00     0.065 A 
ATOM     16  C   UNL     1       1.905   0.945   0.378  1.00  0.00     0.029 A 
ATOM     17  C   UNL     1       2.701  -1.130  -0.587  1.00  0.00     0.029 A 
ATOM     18  C   UNL     1       3.063   1.593  -0.062  1.00  0.00     0.018 A 
ATOM     19  C   UNL     1       3.859  -0.480  -1.027  1.00  0.00     0.018 A 
ATOM     20  C   UNL     1       4.038   0.883  -0.769  1.00  0.00     0.018 A 
ATOM     21  Br  UNL     1       5.621   1.769  -1.367  1.00  0.00    -0.051 Br
ENDBRANCH  14  15
ENDBRANCH   4  14
TORSDOF 4
