REMARK SMILES Oc1nc2ccccc2n1C1=CC[NH2+]CC1
REMARK SMILES IDX 2 1 3 2 4 3 5 4 6 5 7 6 8 7 9 8 10 9 1 10 11 12 12 13 16 14
REMARK SMILES IDX 13 15 15 16 14 17
REMARK H PARENT 1 11 14 18 14 19
ROOT
ATOM      1  C   UNL     1      -0.858  -2.102  -0.466  1.00  0.00     0.299 A 
ATOM      2  N   UNL     1      -2.197  -2.318  -0.537  1.00  0.00    -0.195 NA
ATOM      3  C   UNL     1      -2.707  -1.094  -0.300  1.00  0.00     0.093 A 
ATOM      4  C   UNL     1      -4.051  -0.732  -0.242  1.00  0.00     0.031 A 
ATOM      5  C   UNL     1      -4.356   0.613   0.040  1.00  0.00     0.002 A 
ATOM      6  C   UNL     1      -3.321   1.552   0.260  1.00  0.00     0.002 A 
ATOM      7  C   UNL     1      -1.973   1.154   0.196  1.00  0.00     0.029 A 
ATOM      8  C   UNL     1      -1.707  -0.185  -0.097  1.00  0.00     0.076 A 
ATOM      9  N   UNL     1      -0.524  -0.813  -0.197  1.00  0.00    -0.266 N 
ENDROOT
BRANCH   1  10
ATOM     10  O   UNL     1       0.072  -3.117  -0.681  1.00  0.00    -0.480 OA
ATOM     11  H   UNL     1       1.067  -2.932  -0.689  1.00  0.00     0.297 HD
ENDBRANCH   1  10
BRANCH   9  12
ATOM     12  C   UNL     1       0.786  -0.259  -0.019  1.00  0.00     0.035 C 
ATOM     13  C   UNL     1       1.213   0.710  -0.842  1.00  0.00     0.055 C 
ATOM     14  C   UNL     1       1.594  -0.665   1.189  1.00  0.00     0.115 C 
ATOM     15  C   UNL     1       2.599   1.293  -0.742  1.00  0.00     0.291 C 
ATOM     16  C   UNL     1       3.066  -0.261   1.055  1.00  0.00     0.267 C 
ATOM     17  N   UNL     1       3.174   1.132   0.603  1.00  0.00    -0.343 N 
ATOM     18  H   UNL     1       4.184   1.403   0.573  1.00  0.00     0.346 HD
ATOM     19  H   UNL     1       2.681   1.765   1.277  1.00  0.00     0.346 HD
ENDBRANCH   9  12
TORSDOF 2
