REMARK SMILES O=c1[nH]c(=[SH2])c2ncn(-c3ccccc3)c2[nH]1
REMARK SMILES IDX 3 1 2 2 1 3 17 4 16 5 6 6 7 7 8 8 9 9 4 10 5 13 10 16 11 17
REMARK SMILES IDX 15 18 12 19 14 20 13 21
REMARK H PARENT 3 11 17 12 5 14 5 15
ROOT
ATOM      1  N   UNL     1      -3.295  -1.349   0.197  1.00  0.00    -0.301 N 
ATOM      2  C   UNL     1      -2.145  -2.038   0.501  1.00  0.00     0.325 A 
ATOM      3  O   UNL     1      -2.214  -3.245   0.854  1.00  0.00    -0.248 OA
ATOM      4  N   UNL     1      -0.927  -1.419   0.429  1.00  0.00    -0.291 N 
ATOM      5  C   UNL     1      -0.888  -0.121   0.034  1.00  0.00     0.149 A 
ATOM      6  C   UNL     1      -2.011   0.586  -0.243  1.00  0.00     0.135 A 
ATOM      7  N   UNL     1      -1.702   1.865  -0.529  1.00  0.00    -0.232 NA
ATOM      8  C   UNL     1      -0.347   1.887  -0.407  1.00  0.00     0.206 A 
ATOM      9  N   UNL     1       0.183   0.684  -0.068  1.00  0.00    -0.285 N 
ATOM     10  C   UNL     1      -3.259  -0.029  -0.169  1.00  0.00     0.091 A 
ATOM     11  H   UNL     1      -4.213  -1.844   0.260  1.00  0.00     0.172 HD
ATOM     12  H   UNL     1      -0.058  -1.934   0.693  1.00  0.00     0.173 HD
ENDROOT
BRANCH  10  13
ATOM     13  S   UNL     1      -4.631   0.766  -0.495  1.00  0.00    -0.190 S 
ATOM     14  H   UNL     1      -4.288   2.101  -0.692  1.00  0.00     0.095 HD
ATOM     15  H   UNL     1      -5.301   0.769   0.725  1.00  0.00     0.095 HD
ENDBRANCH  10  13
BRANCH   9  16
ATOM     16  C   UNL     1       1.574   0.376   0.115  1.00  0.00     0.049 A 
ATOM     17  C   UNL     1       2.131  -0.786  -0.446  1.00  0.00     0.027 A 
ATOM     18  C   UNL     1       2.405   1.261   0.822  1.00  0.00     0.027 A 
ATOM     19  C   UNL     1       3.490  -1.070  -0.279  1.00  0.00     0.002 A 
ATOM     20  C   UNL     1       3.763   0.974   0.989  1.00  0.00     0.002 A 
ATOM     21  C   UNL     1       4.305  -0.192   0.441  1.00  0.00     0.000 A 
ENDBRANCH   9  16
TORSDOF 2
