REMARK SMILES N=c1cc(Nc2ccc(Br)cc2)nc(N)[nH]1
REMARK SMILES IDX 16 1 14 2 13 3 4 4 3 5 2 6 15 8 1 11 5 13 6 15 7 16 12 17
REMARK SMILES IDX 8 18 11 19 9 20 10 21
REMARK H PARENT 16 7 15 9 15 10 1 12 5 14
ROOT
ATOM      1  N   UNL     1      -3.378   0.140   0.445  1.00  0.00    -0.311 N 
ATOM      2  C   UNL     1      -2.289   0.935   0.639  1.00  0.00     0.200 A 
ATOM      3  N   UNL     1      -1.043   0.449   0.400  1.00  0.00    -0.197 NA
ATOM      4  C   UNL     1      -0.851  -0.822  -0.044  1.00  0.00     0.138 A 
ATOM      5  C   UNL     1      -1.957  -1.655  -0.236  1.00  0.00     0.093 A 
ATOM      6  C   UNL     1      -3.237  -1.144   0.014  1.00  0.00     0.128 A 
ATOM      7  H   UNL     1      -4.334   0.522   0.632  1.00  0.00     0.171 HD
ENDROOT
BRANCH   2   8
ATOM      8  N   UNL     1      -2.448   2.278   1.097  1.00  0.00    -0.369 N 
ATOM      9  H   UNL     1      -3.397   2.668   1.287  1.00  0.00     0.159 HD
ATOM     10  H   UNL     1      -1.612   2.886   1.245  1.00  0.00     0.159 HD
ENDBRANCH   2   8
BRANCH   6  11
ATOM     11  N   UNL     1      -4.289  -1.883  -0.159  1.00  0.00    -0.284 NA
ATOM     12  H   UNL     1      -4.231  -2.874  -0.487  1.00  0.00     0.189 HD
ENDBRANCH   6  11
BRANCH   4  13
ATOM     13  N   UNL     1       0.476  -1.328  -0.266  1.00  0.00    -0.340 N 
ATOM     14  H   UNL     1       0.608  -2.365  -0.288  1.00  0.00     0.168 HD
BRANCH  13  15
ATOM     15  C   UNL     1       1.649  -0.501  -0.345  1.00  0.00     0.040 A 
ATOM     16  C   UNL     1       1.613   0.767  -0.955  1.00  0.00     0.027 A 
ATOM     17  C   UNL     1       2.872  -0.991   0.139  1.00  0.00     0.027 A 
ATOM     18  C   UNL     1       2.773   1.542  -1.042  1.00  0.00     0.018 A 
ATOM     19  C   UNL     1       4.031  -0.213   0.052  1.00  0.00     0.018 A 
ATOM     20  C   UNL     1       3.982   1.055  -0.534  1.00  0.00     0.018 A 
ATOM     21  Br  UNL     1       5.566   2.115  -0.655  1.00  0.00    -0.051 Br
ENDBRANCH  13  15
ENDBRANCH   4  13
TORSDOF 4
