REMARK SMILES CCOC(=O)[C@H](C)c1c(C(=O)c2ccc(C)nc2)c2ccccc2n1C
REMARK SMILES IDX 6 1 7 2 4 3 5 4 3 5 2 6 1 7 8 8 9 9 25 10 19 11 24 12 20 13
REMARK SMILES IDX 23 14 21 15 22 16 26 17 10 18 11 19 12 20 13 21 18 22 14 23
REMARK SMILES IDX 17 24 15 25 16 26
REMARK H PARENT
ROOT
ATOM      1  C   UNL     1      -1.727  -0.905  -0.026  1.00  0.00     0.144 C 
ATOM      2  C   UNL     1      -1.965  -1.166   1.467  1.00  0.00     0.027 C 
ENDROOT
BRANCH   1   3
ATOM      3  C   UNL     1      -3.003  -0.763  -0.810  1.00  0.00     0.314 C 
ATOM      4  O   UNL     1      -2.945  -0.583  -2.058  1.00  0.00    -0.252 OA
BRANCH   3   5
ATOM      5  O   UNL     1      -4.244  -0.850  -0.169  1.00  0.00    -0.465 OA
BRANCH   5   6
ATOM      6  C   UNL     1      -5.479  -0.701  -0.860  1.00  0.00     0.229 C 
ATOM      7  C   UNL     1      -6.630  -0.831   0.124  1.00  0.00     0.049 C 
ENDBRANCH   5   6
ENDBRANCH   3   5
ENDBRANCH   1   3
BRANCH   1   8
ATOM      8  C   UNL     1      -0.814   0.291  -0.236  1.00  0.00     0.044 A 
ATOM      9  C   UNL     1       0.488   0.212  -0.746  1.00  0.00     0.052 A 
ATOM     10  N   UNL     1      -1.095   1.581   0.118  1.00  0.00    -0.346 N 
ATOM     11  C   UNL     1       1.000   1.494  -0.680  1.00  0.00     0.011 A 
ATOM     12  C   UNL     1       0.023   2.294  -0.143  1.00  0.00     0.049 A 
ATOM     13  C   UNL     1       2.243   2.004  -1.062  1.00  0.00     0.011 A 
ATOM     14  C   UNL     1       0.245   3.659   0.078  1.00  0.00     0.027 A 
ATOM     15  C   UNL     1       2.485   3.372  -0.858  1.00  0.00     0.001 A 
ATOM     16  C   UNL     1       1.493   4.195  -0.286  1.00  0.00     0.002 A 
ATOM     17  C   UNL     1      -2.305   2.105   0.758  1.00  0.00     0.150 C 
BRANCH   9  18
ATOM     18  C   UNL     1       1.182  -0.984  -1.265  1.00  0.00     0.197 C 
ATOM     19  O   UNL     1       0.606  -1.686  -2.139  1.00  0.00    -0.288 OA
BRANCH  18  20
ATOM     20  C   UNL     1       2.536  -1.367  -0.794  1.00  0.00     0.041 A 
ATOM     21  C   UNL     1       3.031  -0.923   0.444  1.00  0.00     0.015 A 
ATOM     22  C   UNL     1       3.347  -2.211  -1.570  1.00  0.00     0.123 A 
ATOM     23  C   UNL     1       4.305  -1.301   0.869  1.00  0.00     0.024 A 
ATOM     24  N   UNL     1       4.585  -2.566  -1.135  1.00  0.00    -0.261 NA
ATOM     25  C   UNL     1       5.083  -2.130   0.053  1.00  0.00     0.037 A 
ATOM     26  C   UNL     1       6.448  -2.557   0.492  1.00  0.00     0.066 C 
ENDBRANCH  18  20
ENDBRANCH   9  18
ENDBRANCH   1   8
TORSDOF 6
