REMARK SMILES O=C([O-])[C@H]1CCC(=O)N1C(=O)OCc1ccccc1
REMARK SMILES IDX 10 1 11 2 9 3 4 4 5 5 6 6 7 7 8 8 2 9 1 10 3 11 12 12 13 13
REMARK SMILES IDX 14 14 15 15 19 16 16 17 18 18 17 19
REMARK H PARENT
ROOT
ATOM      1  C   UNL     1      -1.315  -0.106   0.505  1.00  0.00     0.417 C 
ATOM      2  O   UNL     1      -2.054  -0.443   1.471  1.00  0.00    -0.224 OA
ENDROOT
BRANCH   1   3
ATOM      3  N   UNL     1      -1.885   0.564  -0.631  1.00  0.00    -0.239 N 
ATOM      4  C   UNL     1      -3.299   0.881  -0.785  1.00  0.00     0.143 C 
ATOM      5  C   UNL     1      -3.464   1.411  -2.232  1.00  0.00     0.042 C 
ATOM      6  C   UNL     1      -2.064   1.470  -2.863  1.00  0.00     0.103 C 
ATOM      7  C   UNL     1      -1.189   0.905  -1.817  1.00  0.00     0.232 C 
ATOM      8  O   UNL     1       0.050   0.733  -1.969  1.00  0.00    -0.274 OA
BRANCH   4   9
ATOM      9  C   UNL     1      -3.726   1.904   0.229  1.00  0.00     0.065 C 
ATOM     10  O   UNL     1      -3.044   2.947   0.411  1.00  0.00    -0.548 OA
ATOM     11  O   UNL     1      -4.896   1.714   0.953  1.00  0.00    -0.548 OA
ENDBRANCH   4   9
ENDBRANCH   1   3
BRANCH   1  12
ATOM     12  O   UNL     1       0.055  -0.384   0.537  1.00  0.00    -0.444 OA
BRANCH  12  13
ATOM     13  C   UNL     1       0.682  -1.039   1.634  1.00  0.00     0.270 C 
BRANCH  13  14
ATOM     14  C   UNL     1       2.149  -1.184   1.350  1.00  0.00    -0.011 A 
ATOM     15  C   UNL     1       2.674  -2.413   0.916  1.00  0.00     0.007 A 
ATOM     16  C   UNL     1       2.999  -0.072   1.461  1.00  0.00     0.007 A 
ATOM     17  C   UNL     1       4.036  -2.531   0.621  1.00  0.00     0.000 A 
ATOM     18  C   UNL     1       4.361  -0.193   1.162  1.00  0.00     0.000 A 
ATOM     19  C   UNL     1       4.879  -1.423   0.745  1.00  0.00     0.000 A 
ENDBRANCH  13  14
ENDBRANCH  12  13
ENDBRANCH   1  12
TORSDOF 5
