REMARK SMILES Nc1cc(=Nc2ccc(Br)cc2)[nH]c(N)n1
REMARK SMILES IDX 13 1 14 2 16 3 2 4 3 5 4 6 15 8 5 11 6 12 7 13 12 14 8 15
REMARK SMILES IDX 11 16 9 17 10 18 1 19
REMARK H PARENT 13 7 15 9 15 10 1 20 1 21
ROOT
ATOM      1  N   UNL     1       1.952   1.449   0.008  1.00  0.00    -0.311 N 
ATOM      2  C   UNL     1       3.187   0.886   0.129  1.00  0.00     0.200 A 
ATOM      3  N   UNL     1       3.317  -0.466   0.148  1.00  0.00    -0.198 NA
ATOM      4  C   UNL     1       2.235  -1.278   0.044  1.00  0.00     0.131 A 
ATOM      5  C   UNL     1       0.960  -0.720  -0.080  1.00  0.00     0.093 A 
ATOM      6  C   UNL     1       0.829   0.682  -0.081  1.00  0.00     0.136 A 
ATOM      7  H   UNL     1       1.866   2.491  -0.008  1.00  0.00     0.171 HD
ENDROOT
BRANCH   2   8
ATOM      8  N   UNL     1       4.348   1.710   0.234  1.00  0.00    -0.369 N 
ATOM      9  H   UNL     1       4.268   2.750   0.221  1.00  0.00     0.159 HD
ATOM     10  H   UNL     1       5.294   1.277   0.326  1.00  0.00     0.159 HD
ENDBRANCH   2   8
BRANCH   6  11
ATOM     11  N   UNL     1      -0.328   1.277  -0.202  1.00  0.00    -0.231 NA
BRANCH  11  12
ATOM     12  C   UNL     1      -1.630   0.670  -0.216  1.00  0.00     0.065 A 
ATOM     13  C   UNL     1      -2.550   1.051  -1.202  1.00  0.00     0.029 A 
ATOM     14  C   UNL     1      -2.036  -0.208   0.804  1.00  0.00     0.029 A 
ATOM     15  C   UNL     1      -3.842   0.516  -1.205  1.00  0.00     0.018 A 
ATOM     16  C   UNL     1      -3.328  -0.742   0.799  1.00  0.00     0.018 A 
ATOM     17  C   UNL     1      -4.230  -0.385  -0.208  1.00  0.00     0.018 A 
ATOM     18  Br  UNL     1      -5.996  -1.113  -0.212  1.00  0.00    -0.051 Br
ENDBRANCH  11  12
ENDBRANCH   6  11
BRANCH   4  19
ATOM     19  N   UNL     1       2.409  -2.695   0.052  1.00  0.00    -0.383 N 
ATOM     20  H   UNL     1       1.589  -3.338  -0.029  1.00  0.00     0.158 HD
ATOM     21  H   UNL     1       3.364  -3.107   0.141  1.00  0.00     0.158 HD
ENDBRANCH   4  19
TORSDOF 4
