REMARK SMILES C=C1S/C(=N\c2c(C)cccc2Cl)N(C(=O)c2sc3ccccc3c2Cl)C12CCCCC2
REMARK SMILES IDX 1 1 2 2 3 3 4 4 14 5 27 6 28 7 29 8 30 9 31 10 32 11 5 12
REMARK SMILES IDX 6 13 7 14 12 15 9 16 11 17 10 18 8 19 13 20 15 21 16 22
REMARK SMILES IDX 17 23 18 24 25 25 19 26 24 27 20 28 23 29 21 30 22 31 26 32
REMARK H PARENT
ROOT
ATOM      1  C   UNL     1      -1.599   3.621   0.687  1.00  0.00     0.023 C 
ATOM      2  C   UNL     1      -1.288   2.330   0.507  1.00  0.00     0.012 C 
ATOM      3  S   UNL     1      -2.009   1.133   1.633  1.00  0.00    -0.054 SA
ATOM      4  C   UNL     1      -1.521  -0.106   0.457  1.00  0.00     0.176 C 
ATOM      5  N   UNL     1      -0.508   0.296  -0.460  1.00  0.00    -0.275 N 
ATOM      6  C   UNL     1      -0.362   1.764  -0.582  1.00  0.00     0.081 C 
ATOM      7  C   UNL     1      -0.821   2.189  -2.016  1.00  0.00     0.034 C 
ATOM      8  C   UNL     1      -0.350   3.576  -2.485  1.00  0.00     0.003 C 
ATOM      9  C   UNL     1       1.143   3.791  -2.229  1.00  0.00     0.000 C 
ATOM     10  C   UNL     1       1.494   3.570  -0.758  1.00  0.00     0.003 C 
ATOM     11  C   UNL     1       1.120   2.154  -0.312  1.00  0.00     0.034 C 
ENDROOT
BRANCH   4  12
ATOM     12  N   UNL     1      -2.083  -1.278   0.377  1.00  0.00    -0.222 NA
BRANCH  12  13
ATOM     13  C   UNL     1      -3.171  -1.710   1.205  1.00  0.00     0.088 A 
ATOM     14  C   UNL     1      -2.957  -2.698   2.190  1.00  0.00    -0.024 A 
ATOM     15  C   UNL     1      -4.468  -1.195   1.002  1.00  0.00     0.067 A 
ATOM     16  C   UNL     1      -4.040  -3.154   2.958  1.00  0.00     0.006 A 
ATOM     17  C   UNL     1      -5.529  -1.647   1.791  1.00  0.00     0.023 A 
ATOM     18  C   UNL     1      -5.316  -2.624   2.765  1.00  0.00     0.002 A 
ATOM     19  C   UNL     1      -1.593  -3.297   2.397  1.00  0.00     0.047 C 
ATOM     20  Cl  UNL     1      -4.796  -0.020  -0.266  1.00  0.00    -0.082 Cl
ENDBRANCH  12  13
ENDBRANCH   4  12
BRANCH   5  21
ATOM     21  C   UNL     1       0.071  -0.655  -1.371  1.00  0.00     0.272 C 
ATOM     22  O   UNL     1      -0.621  -1.084  -2.333  1.00  0.00    -0.268 OA
BRANCH  21  23
ATOM     23  C   UNL     1       1.453  -1.138  -1.212  1.00  0.00     0.112 A 
ATOM     24  S   UNL     1       2.402  -1.680  -2.504  1.00  0.00    -0.128 S 
ATOM     25  C   UNL     1       2.213  -1.191  -0.031  1.00  0.00     0.072 A 
ATOM     26  C   UNL     1       3.775  -1.962  -1.584  1.00  0.00     0.037 A 
ATOM     27  C   UNL     1       3.521  -1.650  -0.257  1.00  0.00     0.012 A 
ATOM     28  C   UNL     1       5.018  -2.422  -2.017  1.00  0.00     0.020 A 
ATOM     29  C   UNL     1       4.532  -1.801   0.700  1.00  0.00     0.011 A 
ATOM     30  C   UNL     1       6.039  -2.564  -1.065  1.00  0.00     0.002 A 
ATOM     31  C   UNL     1       5.796  -2.258   0.287  1.00  0.00     0.001 A 
ATOM     32  Cl  UNL     1       1.601  -0.792   1.570  1.00  0.00    -0.082 Cl
ENDBRANCH  21  23
ENDBRANCH   5  21
TORSDOF 4
