REMARK SMILES O=C([O-])/C(=C/c1ccccc1)c1ccccc1
REMARK SMILES IDX 4 1 2 2 1 3 3 4 5 5 6 6 7 7 11 8 8 9 10 10 9 11 12 12 13 13
REMARK SMILES IDX 17 14 14 15 16 16 15 17
REMARK H PARENT
ROOT
ATOM      1  C   UNL     1      -0.606   0.538  -1.607  1.00  0.00     0.005 C 
ENDROOT
BRANCH   1   2
ATOM      2  C   UNL     1      -1.344   0.924  -2.835  1.00  0.00     0.072 C 
ATOM      3  O   UNL     1      -0.737   1.395  -3.834  1.00  0.00    -0.545 OA
ATOM      4  O   UNL     1      -2.723   0.765  -2.900  1.00  0.00    -0.545 OA
ENDBRANCH   1   2
BRANCH   1   5
ATOM      5  C   UNL     1       0.746   0.531  -1.606  1.00  0.00     0.018 C 
BRANCH   5   6
ATOM      6  C   UNL     1       1.590   0.236  -0.426  1.00  0.00    -0.025 A 
ATOM      7  C   UNL     1       1.335   0.822   0.828  1.00  0.00     0.008 A 
ATOM      8  C   UNL     1       2.712  -0.593  -0.578  1.00  0.00     0.008 A 
ATOM      9  C   UNL     1       2.163   0.541   1.919  1.00  0.00     0.001 A 
ATOM     10  C   UNL     1       3.539  -0.870   0.515  1.00  0.00     0.001 A 
ATOM     11  C   UNL     1       3.261  -0.308   1.764  1.00  0.00     0.000 A 
ENDBRANCH   5   6
ENDBRANCH   1   5
BRANCH   1  12
ATOM     12  C   UNL     1      -1.393   0.102  -0.426  1.00  0.00    -0.017 A 
ATOM     13  C   UNL     1      -2.348   0.962   0.142  1.00  0.00     0.009 A 
ATOM     14  C   UNL     1      -1.202  -1.176   0.128  1.00  0.00     0.009 A 
ATOM     15  C   UNL     1      -3.088   0.554   1.256  1.00  0.00     0.001 A 
ATOM     16  C   UNL     1      -1.944  -1.579   1.242  1.00  0.00     0.001 A 
ATOM     17  C   UNL     1      -2.885  -0.714   1.807  1.00  0.00     0.000 A 
ENDBRANCH   1  12
TORSDOF 4
