REMARK SMILES Nc1ccc(NC(=O)c2ccc(C(=O)Nc3ccc(N)cc3)cc2)cc1
REMARK SMILES IDX 9 1 10 2 11 3 12 4 23 5 24 6 7 7 6 8 8 10 5 11 2 12 3 13
REMARK SMILES IDX 26 14 4 15 25 16 1 17 13 20 15 21 14 22 16 24 17 25 22 26
REMARK SMILES IDX 18 27 21 28 19 29 20 30
REMARK H PARENT 6 9 1 18 1 19 15 23 20 31 20 32
ROOT
ATOM      1  C   UNL     1      -1.370  -0.207  -0.413  1.00  0.00     0.040 A 
ATOM      2  C   UNL     1      -0.966   0.826   0.451  1.00  0.00     0.014 A 
ATOM      3  C   UNL     1       0.389   1.033   0.725  1.00  0.00     0.014 A 
ATOM      4  C   UNL     1       1.370   0.207   0.152  1.00  0.00     0.040 A 
ATOM      5  C   UNL     1       0.966  -0.826  -0.713  1.00  0.00     0.014 A 
ATOM      6  C   UNL     1      -0.389  -1.033  -0.987  1.00  0.00     0.014 A 
ENDROOT
BRANCH   1   7
ATOM      7  C   UNL     1      -2.806  -0.439  -0.705  1.00  0.00     0.255 C 
ATOM      8  N   UNL     1      -3.779   0.598  -0.493  1.00  0.00    -0.322 N 
ATOM      9  H   UNL     1      -3.459   1.591  -0.557  1.00  0.00     0.170 HD
ATOM     10  O   UNL     1      -3.170  -1.548  -1.186  1.00  0.00    -0.269 OA
BRANCH   8  11
ATOM     11  C   UNL     1      -5.189   0.354  -0.353  1.00  0.00     0.041 A 
ATOM     12  C   UNL     1      -7.959  -0.055  -0.048  1.00  0.00     0.032 A 
ATOM     13  C   UNL     1      -7.050  -1.033   0.378  1.00  0.00     0.027 A 
ATOM     14  C   UNL     1      -7.478   1.134  -0.614  1.00  0.00     0.027 A 
ATOM     15  C   UNL     1      -5.675  -0.829   0.233  1.00  0.00     0.028 A 
ATOM     16  C   UNL     1      -6.103   1.339  -0.759  1.00  0.00     0.028 A 
BRANCH  12  17
ATOM     17  N   UNL     1      -9.365  -0.264   0.101  1.00  0.00    -0.399 N 
ATOM     18  H   UNL     1      -9.733  -1.146   0.524  1.00  0.00     0.156 HD
ATOM     19  H   UNL     1     -10.050   0.461  -0.210  1.00  0.00     0.156 HD
ENDBRANCH  12  17
ENDBRANCH   8  11
ENDBRANCH   1   7
BRANCH   4  20
ATOM     20  C   UNL     1       2.806   0.439   0.444  1.00  0.00     0.255 C 
ATOM     21  N   UNL     1       3.779  -0.598   0.232  1.00  0.00    -0.322 N 
ATOM     22  O   UNL     1       3.170   1.548   0.925  1.00  0.00    -0.269 OA
ATOM     23  H   UNL     1       3.459  -1.591   0.296  1.00  0.00     0.170 HD
BRANCH  21  24
ATOM     24  C   UNL     1       5.189  -0.354   0.092  1.00  0.00     0.041 A 
ATOM     25  C   UNL     1       5.675   0.829  -0.494  1.00  0.00     0.028 A 
ATOM     26  C   UNL     1       6.103  -1.339   0.497  1.00  0.00     0.028 A 
ATOM     27  C   UNL     1       7.050   1.033  -0.639  1.00  0.00     0.027 A 
ATOM     28  C   UNL     1       7.478  -1.134   0.353  1.00  0.00     0.027 A 
ATOM     29  C   UNL     1       7.959   0.055  -0.213  1.00  0.00     0.032 A 
BRANCH  29  30
ATOM     30  N   UNL     1       9.365   0.264  -0.363  1.00  0.00    -0.399 N 
ATOM     31  H   UNL     1      10.050  -0.461  -0.051  1.00  0.00     0.156 HD
ATOM     32  H   UNL     1       9.733   1.146  -0.786  1.00  0.00     0.156 HD
ENDBRANCH  29  30
ENDBRANCH  21  24
ENDBRANCH   4  20
TORSDOF 6
