REMARK SMILES CC1=CC(O)=CC(C)(C)[C@]1(O)/C=C/C(C)=C/C(=O)[O-]
REMARK SMILES IDX 13 1 12 2 10 3 4 4 6 5 3 6 7 7 2 8 8 9 9 10 1 11 5 12 11 14
REMARK SMILES IDX 14 16 15 17 16 18 17 19 18 20 19 21
REMARK H PARENT 5 13 11 15
ROOT
ATOM      1  C   UNL     1       1.523  -0.875  -0.297  1.00  0.00     0.002 C 
ENDROOT
BRANCH   1   2
ATOM      2  C   UNL     1       0.639   0.131  -0.207  1.00  0.00     0.013 C 
BRANCH   2   3
ATOM      3  C   UNL     1      -0.818   0.051  -0.665  1.00  0.00     0.113 C 
ATOM      4  C   UNL     1      -3.585   0.834  -0.597  1.00  0.00     0.112 C 
ATOM      5  C   UNL     1      -3.209  -0.214   0.141  1.00  0.00     0.029 C 
ATOM      6  C   UNL     1      -2.573   1.751  -1.156  1.00  0.00     0.048 C 
ATOM      7  C   UNL     1      -1.758  -0.403   0.538  1.00  0.00     0.023 C 
ATOM      8  C   UNL     1      -1.267   1.430  -1.168  1.00  0.00    -0.034 C 
ATOM      9  C   UNL     1      -1.510   0.467   1.799  1.00  0.00     0.019 C 
ATOM     10  C   UNL     1      -1.552  -1.883   0.946  1.00  0.00     0.019 C 
ATOM     11  C   UNL     1      -0.324   2.357  -1.899  1.00  0.00     0.043 C 
BRANCH   4  12
ATOM     12  O   UNL     1      -4.938   1.051  -0.842  1.00  0.00    -0.508 OA
ATOM     13  H   UNL     1      -5.252   1.835  -1.402  1.00  0.00     0.293 HD
ENDBRANCH   4  12
BRANCH   3  14
ATOM     14  O   UNL     1      -0.951  -0.800  -1.785  1.00  0.00    -0.380 OA
ATOM     15  H   UNL     1      -0.785  -1.738  -1.523  1.00  0.00     0.212 HD
ENDBRANCH   3  14
ENDBRANCH   2   3
ENDBRANCH   1   2
BRANCH   1  16
ATOM     16  C   UNL     1       2.915  -0.763   0.207  1.00  0.00    -0.050 C 
ATOM     17  C   UNL     1       3.612   0.576   0.206  1.00  0.00     0.044 C 
BRANCH  16  18
ATOM     18  C   UNL     1       3.522  -1.890   0.634  1.00  0.00     0.028 C 
BRANCH  18  19
ATOM     19  C   UNL     1       4.867  -1.974   1.242  1.00  0.00     0.064 C 
ATOM     20  O   UNL     1       5.410  -3.103   1.370  1.00  0.00    -0.545 OA
ATOM     21  O   UNL     1       5.528  -0.853   1.726  1.00  0.00    -0.545 OA
ENDBRANCH  18  19
ENDBRANCH  16  18
ENDBRANCH   1  16
TORSDOF 7
