REMARK SMILES COc1c(NC(C)=O)c2ccccc2c2ccccc12
REMARK SMILES IDX 3 1 4 2 9 3 10 4 11 5 12 6 13 7 14 8 15 9 16 10 17 11 18 12
REMARK SMILES IDX 19 13 20 14 2 15 1 16 5 17 6 18 7 20 8 21
REMARK H PARENT 5 19
ROOT
ATOM      1  C   UNL     1       0.177   1.009  -0.293  1.00  0.00     0.150 A 
ATOM      2  C   UNL     1       0.712  -0.136   0.320  1.00  0.00     0.092 A 
ATOM      3  C   UNL     1      -0.096  -1.278   0.511  1.00  0.00     0.010 A 
ATOM      4  C   UNL     1       0.438  -2.431   1.128  1.00  0.00     0.011 A 
ATOM      5  C   UNL     1      -0.348  -3.562   1.330  1.00  0.00     0.001 A 
ATOM      6  C   UNL     1      -1.674  -3.570   0.918  1.00  0.00     0.001 A 
ATOM      7  C   UNL     1      -2.223  -2.452   0.291  1.00  0.00     0.009 A 
ATOM      8  C   UNL     1      -1.450  -1.285   0.062  1.00  0.00    -0.008 A 
ATOM      9  C   UNL     1      -1.974  -0.135  -0.603  1.00  0.00    -0.007 A 
ATOM     10  C   UNL     1      -3.298  -0.076  -1.109  1.00  0.00     0.009 A 
ATOM     11  C   UNL     1      -3.775   1.070  -1.747  1.00  0.00     0.001 A 
ATOM     12  C   UNL     1      -2.956   2.181  -1.900  1.00  0.00     0.001 A 
ATOM     13  C   UNL     1      -1.650   2.155  -1.420  1.00  0.00     0.013 A 
ATOM     14  C   UNL     1      -1.143   1.009  -0.774  1.00  0.00     0.027 A 
ENDROOT
BRANCH   1  15
ATOM     15  O   UNL     1       0.962   2.161  -0.432  1.00  0.00    -0.494 OA
ATOM     16  C   UNL     1       1.323   2.968   0.683  1.00  0.00     0.278 C 
ENDBRANCH   1  15
BRANCH   2  17
ATOM     17  N   UNL     1       2.082  -0.132   0.755  1.00  0.00    -0.323 N 
ATOM     18  C   UNL     1       3.175   0.076  -0.149  1.00  0.00     0.221 C 
ATOM     19  H   UNL     1       2.291  -0.334   1.758  1.00  0.00     0.170 HD
ATOM     20  C   UNL     1       4.572   0.146   0.375  1.00  0.00     0.114 C 
ATOM     21  O   UNL     1       2.971   0.154  -1.391  1.00  0.00    -0.275 OA
ENDBRANCH   2  17
TORSDOF 2
