REMARK SMILES NS(=O)(=O)c1cc2c(cc1Cl)N[C@@H](Cc1ccccc1)NS2(=O)=O
REMARK SMILES IDX 5 1 6 2 7 3 8 4 9 5 10 6 11 7 12 8 13 9 21 10 22 11 23 12
REMARK SMILES IDX 24 13 2 16 3 17 4 18 1 19 14 22 15 23 16 24 20 25 17 26
REMARK SMILES IDX 19 27 18 28
REMARK H PARENT 12 14 21 15 1 20 1 21
ROOT
ATOM      1  C   UNL     1      -3.203   0.612  -0.068  1.00  0.00     0.102 A 
ATOM      2  C   UNL     1      -2.150  -0.304  -0.206  1.00  0.00     0.047 A 
ATOM      3  C   UNL     1      -0.906  -0.044   0.378  1.00  0.00     0.107 A 
ATOM      4  C   UNL     1      -0.700   1.124   1.109  1.00  0.00     0.057 A 
ATOM      5  C   UNL     1      -1.733   2.064   1.216  1.00  0.00     0.049 A 
ATOM      6  C   UNL     1      -2.984   1.812   0.639  1.00  0.00     0.063 A 
ATOM      7  Cl  UNL     1      -4.254   3.014   0.847  1.00  0.00    -0.083 Cl
ATOM      8  N   UNL     1       0.543   1.337   1.790  1.00  0.00    -0.367 N 
ATOM      9  C   UNL     1       1.382   0.243   2.304  1.00  0.00     0.166 C 
ATOM     10  N   UNL     1       1.715  -0.768   1.278  1.00  0.00    -0.189 NA
ATOM     11  S   UNL     1       0.435  -1.140   0.159  1.00  0.00     0.244 S 
ATOM     12  O   UNL     1       0.959  -0.989  -1.241  1.00  0.00    -0.207 OA
ATOM     13  O   UNL     1      -0.021  -2.558   0.361  1.00  0.00    -0.207 OA
ATOM     14  H   UNL     1       0.778   2.308   2.097  1.00  0.00     0.162 HD
ATOM     15  H   UNL     1       2.031  -1.656   1.731  1.00  0.00     0.143 HD
ENDROOT
BRANCH   1  16
ATOM     16  S   UNL     1      -4.776   0.247  -0.785  1.00  0.00     0.239 S 
ATOM     17  O   UNL     1      -4.739  -1.088  -1.476  1.00  0.00    -0.207 OA
ATOM     18  O   UNL     1      -5.820   0.203   0.295  1.00  0.00    -0.207 OA
BRANCH  16  19
ATOM     19  N   UNL     1      -5.182   1.467  -1.942  1.00  0.00    -0.225 NA
ATOM     20  H   UNL     1      -6.118   1.218  -2.331  1.00  0.00     0.137 HD
ATOM     21  H   UNL     1      -4.497   1.383  -2.726  1.00  0.00     0.137 HD
ENDBRANCH  16  19
ENDBRANCH   1  16
BRANCH   9  22
ATOM     22  C   UNL     1       0.831  -0.353   3.627  1.00  0.00     0.077 C 
BRANCH  22  23
ATOM     23  C   UNL     1      -0.551  -0.955   3.535  1.00  0.00    -0.045 A 
ATOM     24  C   UNL     1      -0.716  -2.315   3.228  1.00  0.00     0.004 A 
ATOM     25  C   UNL     1      -1.689  -0.163   3.773  1.00  0.00     0.004 A 
ATOM     26  C   UNL     1      -1.998  -2.860   3.106  1.00  0.00     0.000 A 
ATOM     27  C   UNL     1      -2.970  -0.710   3.645  1.00  0.00     0.000 A 
ATOM     28  C   UNL     1      -3.124  -2.056   3.306  1.00  0.00     0.000 A 
ENDBRANCH  22  23
ENDBRANCH   9  22
TORSDOF 4
