REMARK SMILES COc1ccc(-c2cc3ccccc3[nH]2)cc1
REMARK SMILES IDX 3 1 4 2 5 3 6 4 16 5 17 6 2 7 1 8 7 9 8 10 15 11 9 12 14 13
REMARK SMILES IDX 10 14 13 15 11 16 12 17
REMARK H PARENT 15 18
ROOT
ATOM      1  C   UNL     1       3.558  -0.292   0.105  1.00  0.00     0.118 A 
ATOM      2  C   UNL     1       2.894   0.876  -0.311  1.00  0.00     0.047 A 
ATOM      3  C   UNL     1       1.497   0.934  -0.304  1.00  0.00     0.014 A 
ATOM      4  C   UNL     1       0.736  -0.170   0.120  1.00  0.00    -0.002 A 
ATOM      5  C   UNL     1       1.406  -1.335   0.534  1.00  0.00     0.014 A 
ATOM      6  C   UNL     1       2.803  -1.391   0.526  1.00  0.00     0.047 A 
ENDROOT
BRANCH   1   7
ATOM      7  O   UNL     1       4.957  -0.400   0.116  1.00  0.00    -0.497 OA
ATOM      8  C   UNL     1       5.846   0.638  -0.284  1.00  0.00     0.278 C 
ENDBRANCH   1   7
BRANCH   4   9
ATOM      9  C   UNL     1      -0.748  -0.109   0.128  1.00  0.00     0.046 A 
ATOM     10  C   UNL     1      -1.527   0.772  -0.627  1.00  0.00     0.037 A 
ATOM     11  N   UNL     1      -1.538  -0.915   0.884  1.00  0.00    -0.355 N 
ATOM     12  C   UNL     1      -2.831   0.470  -0.301  1.00  0.00     0.000 A 
ATOM     13  C   UNL     1      -2.801  -0.550   0.612  1.00  0.00     0.046 A 
ATOM     14  C   UNL     1      -4.029   1.024  -0.748  1.00  0.00     0.010 A 
ATOM     15  C   UNL     1      -3.971  -1.086   1.149  1.00  0.00     0.026 A 
ATOM     16  C   UNL     1      -5.227   0.503  -0.226  1.00  0.00     0.001 A 
ATOM     17  C   UNL     1      -5.198  -0.548   0.719  1.00  0.00     0.002 A 
ATOM     18  H   UNL     1      -1.241  -1.653   1.560  1.00  0.00     0.167 HD
ENDBRANCH   4   9
TORSDOF 2
