REMARK SMILES c1ccc2sc(SCSc3nc4ccccc4s3)nc2c1
REMARK SMILES IDX 8 1 7 2 6 3 1 4 2 5 21 6 3 7 20 8 4 9 19 10 5 11 9 12 10 13
REMARK SMILES IDX 11 14 18 15 12 16 17 17 13 18 16 19 14 20 15 21
REMARK H PARENT
ROOT
ATOM      1  C   UNL     1      -0.068  -2.397   0.163  1.00  0.00     0.154 C 
ENDROOT
BRANCH   1   2
ATOM      2  S   UNL     1       0.056  -1.243   1.573  1.00  0.00    -0.084 SA
BRANCH   2   3
ATOM      3  C   UNL     1       1.743  -0.761   1.220  1.00  0.00     0.151 A 
ATOM      4  C   UNL     1       5.458   1.468  -0.397  1.00  0.00     0.002 A 
ATOM      5  C   UNL     1       6.200   0.500   0.310  1.00  0.00     0.002 A 
ATOM      6  C   UNL     1       4.053   1.442  -0.379  1.00  0.00     0.030 A 
ATOM      7  C   UNL     1       5.543  -0.503   1.041  1.00  0.00     0.021 A 
ATOM      8  C   UNL     1       3.411   0.440   0.351  1.00  0.00     0.083 A 
ATOM      9  C   UNL     1       4.151  -0.507   1.042  1.00  0.00     0.055 A 
ATOM     10  N   UNL     1       2.064   0.305   0.448  1.00  0.00    -0.230 NA
ATOM     11  S   UNL     1       3.106  -1.569   1.815  1.00  0.00    -0.108 S 
ENDBRANCH   2   3
ENDBRANCH   1   2
BRANCH   1  12
ATOM     12  S   UNL     1      -0.134  -1.497  -1.425  1.00  0.00    -0.084 SA
BRANCH  12  13
ATOM     13  C   UNL     1      -1.789  -0.867  -1.168  1.00  0.00     0.151 A 
ATOM     14  N   UNL     1      -2.046   0.332  -0.592  1.00  0.00    -0.230 NA
ATOM     15  S   UNL     1      -3.198  -1.687  -1.623  1.00  0.00    -0.108 S 
ATOM     16  C   UNL     1      -3.382   0.558  -0.526  1.00  0.00     0.083 A 
ATOM     17  C   UNL     1      -4.178  -0.451  -1.048  1.00  0.00     0.055 A 
ATOM     18  C   UNL     1      -3.963   1.704   0.018  1.00  0.00     0.030 A 
ATOM     19  C   UNL     1      -5.568  -0.367  -1.054  1.00  0.00     0.021 A 
ATOM     20  C   UNL     1      -5.365   1.813   0.024  1.00  0.00     0.002 A 
ATOM     21  C   UNL     1      -6.163   0.781  -0.509  1.00  0.00     0.002 A 
ENDBRANCH  12  13
ENDBRANCH   1  12
TORSDOF 4
