REMARK SMILES O=C(NC(=O)c1c(F)cccc1F)Nc1cc(Cl)c(F)c(Cl)c1F
REMARK SMILES IDX 1 1 2 2 3 3 4 4 5 5 14 6 15 9 16 10 23 11 17 12 21 13 19 14
REMARK SMILES IDX 24 15 18 16 22 17 20 18 6 19 7 20 12 21 9 22 11 23 10 24
REMARK SMILES IDX 8 25 13 26
REMARK H PARENT 3 7 14 8
ROOT
ATOM      1  O   UNL     1       0.647  -0.078   1.711  1.00  0.00    -0.248 OA
ATOM      2  C   UNL     1       0.599  -0.174   0.454  1.00  0.00     0.326 C 
ATOM      3  N   UNL     1      -0.659  -0.354  -0.214  1.00  0.00    -0.274 N 
ATOM      4  C   UNL     1      -1.913  -0.518   0.470  1.00  0.00     0.265 C 
ATOM      5  O   UNL     1      -1.932  -0.757   1.708  1.00  0.00    -0.269 OA
ATOM      6  N   UNL     1       1.809  -0.129  -0.317  1.00  0.00    -0.305 N 
ATOM      7  H   UNL     1      -0.652  -0.395  -1.258  1.00  0.00     0.175 HD
ATOM      8  H   UNL     1       1.776  -0.490  -1.297  1.00  0.00     0.171 HD
ENDROOT
BRANCH   6   9
ATOM      9  C   UNL     1       3.090   0.207   0.237  1.00  0.00     0.082 A 
ATOM     10  C   UNL     1       4.210  -0.559  -0.115  1.00  0.00     0.053 A 
ATOM     11  C   UNL     1       3.255   1.323   1.081  1.00  0.00     0.168 A 
ATOM     12  C   UNL     1       5.473  -0.248   0.399  1.00  0.00     0.080 A 
ATOM     13  C   UNL     1       4.521   1.634   1.595  1.00  0.00     0.116 A 
ATOM     14  C   UNL     1       5.629   0.845   1.259  1.00  0.00     0.163 A 
ATOM     15  F   UNL     1       2.203   2.134   1.362  1.00  0.00    -0.203 F 
ATOM     16  Cl  UNL     1       6.858  -1.234  -0.041  1.00  0.00    -0.081 Cl
ATOM     17  Cl  UNL     1       4.724   3.026   2.650  1.00  0.00    -0.078 Cl
ATOM     18  F   UNL     1       6.855   1.148   1.757  1.00  0.00    -0.204 F 
ENDBRANCH   6   9
BRANCH   4  19
ATOM     19  C   UNL     1      -3.192  -0.445  -0.274  1.00  0.00     0.111 A 
ATOM     20  C   UNL     1      -4.265  -1.292   0.073  1.00  0.00     0.138 A 
ATOM     21  C   UNL     1      -3.365   0.482  -1.323  1.00  0.00     0.138 A 
ATOM     22  C   UNL     1      -5.473  -1.223  -0.628  1.00  0.00     0.040 A 
ATOM     23  C   UNL     1      -4.579   0.542  -2.017  1.00  0.00     0.040 A 
ATOM     24  C   UNL     1      -5.629  -0.311  -1.673  1.00  0.00     0.006 A 
ATOM     25  F   UNL     1      -4.137  -2.202   1.072  1.00  0.00    -0.206 F 
ATOM     26  F   UNL     1      -2.383   1.359  -1.650  1.00  0.00    -0.206 F 
ENDBRANCH   4  19
TORSDOF 2
