REMARK SMILES Cc1cccc(C)c1NC(=O)NCc1ccco1
REMARK SMILES IDX 9 1 10 2 11 3 12 4 8 7 2 8 3 9 4 10 6 11 5 12 1 13 7 14
REMARK SMILES IDX 13 15 14 16 15 17 18 18 16 19 17 20
REMARK H PARENT 9 5 12 6
ROOT
ATOM      1  N   UNL     1      -0.801  -1.016  -0.191  1.00  0.00    -0.307 N 
ATOM      2  C   UNL     1       0.385  -0.761   0.573  1.00  0.00     0.319 C 
ATOM      3  O   UNL     1       0.493   0.305   1.240  1.00  0.00    -0.248 OA
ATOM      4  N   UNL     1       1.457  -1.713   0.559  1.00  0.00    -0.331 N 
ATOM      5  H   UNL     1      -0.797  -1.807  -0.873  1.00  0.00     0.171 HD
ATOM      6  H   UNL     1       1.335  -2.605   0.030  1.00  0.00     0.165 HD
ENDROOT
BRANCH   1   7
ATOM      7  C   UNL     1      -1.906  -0.099  -0.213  1.00  0.00     0.048 A 
ATOM      8  C   UNL     1      -2.208   0.604  -1.400  1.00  0.00    -0.027 A 
ATOM      9  C   UNL     1      -3.289   1.498  -1.421  1.00  0.00     0.005 A 
ATOM     10  C   UNL     1      -4.058   1.704  -0.276  1.00  0.00     0.001 A 
ATOM     11  C   UNL     1      -2.712   0.085   0.936  1.00  0.00    -0.027 A 
ATOM     12  C   UNL     1      -3.770   1.006   0.897  1.00  0.00     0.005 A 
ATOM     13  C   UNL     1      -1.383   0.403  -2.642  1.00  0.00     0.046 C 
ATOM     14  C   UNL     1      -2.446  -0.669   2.212  1.00  0.00     0.046 C 
ENDBRANCH   1   7
BRANCH   4  15
ATOM     15  C   UNL     1       2.713  -1.489   1.271  1.00  0.00     0.193 C 
BRANCH  15  16
ATOM     16  C   UNL     1       3.506  -0.417   0.593  1.00  0.00     0.122 A 
ATOM     17  C   UNL     1       4.156  -0.539  -0.618  1.00  0.00     0.047 A 
ATOM     18  O   UNL     1       3.657   0.798   1.066  1.00  0.00    -0.467 OA
ATOM     19  C   UNL     1       4.726   0.693  -0.857  1.00  0.00     0.042 A 
ATOM     20  C   UNL     1       4.386   1.488   0.220  1.00  0.00     0.195 A 
ENDBRANCH  15  16
ENDBRANCH   4  15
TORSDOF 3
