REMARK SMILES Cc1ccc(NC(=O)N2CC[NH+](C)CC2)cc1NC(=O)N1CC[NH+](C)CC1
REMARK SMILES IDX 17 1 16 2 2 3 5 4 3 5 1 6 4 7 18 8 23 9 24 10 22 11 26 12
REMARK SMILES IDX 21 13 27 14 19 15 25 16 20 18 6 20 7 21 9 22 10 23 15 24
REMARK SMILES IDX 11 25 14 26 12 27 8 29 13 30
REMARK H PARENT 24 17 18 19 6 28 12 31
ROOT
ATOM      1  C   UNL     1       3.206  -3.284   5.510  1.00  0.00     0.047 A 
ATOM      2  C   UNL     1       1.942  -3.716   5.094  1.00  0.00     0.052 A 
ATOM      3  C   UNL     1       4.043  -2.599   4.592  1.00  0.00    -0.027 A 
ATOM      4  C   UNL     1       1.548  -3.614   3.759  1.00  0.00     0.044 A 
ATOM      5  C   UNL     1       3.666  -2.546   3.241  1.00  0.00     0.008 A 
ATOM      6  C   UNL     1       5.309  -1.901   5.015  1.00  0.00     0.046 C 
ATOM      7  C   UNL     1       2.436  -3.067   2.822  1.00  0.00     0.026 A 
ENDROOT
BRANCH   1   8
ATOM      8  N   UNL     1       3.591  -3.544   6.866  1.00  0.00    -0.307 N 
ATOM      9  C   UNL     1       6.625  -1.783   9.186  1.00  0.00     0.283 C 
ATOM     10  N   UNL     1       7.615  -2.617   9.895  1.00  0.00    -0.334 N 
ATOM     11  C   UNL     1       5.265  -2.489   9.143  1.00  0.00     0.183 C 
ATOM     12  C   UNL     1       7.793  -3.916   9.203  1.00  0.00     0.283 C 
ATOM     13  N   UNL     1       5.437  -3.804   8.518  1.00  0.00    -0.313 N 
ATOM     14  C   UNL     1       6.464  -4.681   9.101  1.00  0.00     0.183 C 
ATOM     15  C   UNL     1       4.881  -4.080   7.218  1.00  0.00     0.322 C 
ATOM     16  C   UNL     1       8.902  -1.906   9.964  1.00  0.00     0.332 C 
ATOM     17  H   UNL     1       7.283  -2.786  10.875  1.00  0.00     0.347 HD
ATOM     18  O   UNL     1       5.565  -4.690   6.357  1.00  0.00    -0.248 OA
ATOM     19  H   UNL     1       2.829  -3.700   7.561  1.00  0.00     0.171 HD
ENDBRANCH   1   8
BRANCH   4  20
ATOM     20  N   UNL     1       0.278  -4.145   3.358  1.00  0.00    -0.308 N 
ATOM     21  C   UNL     1       0.214  -5.131   2.321  1.00  0.00     0.322 C 
ATOM     22  N   UNL     1       0.182  -6.520   2.673  1.00  0.00    -0.313 N 
ATOM     23  C   UNL     1      -0.985  -7.338   2.315  1.00  0.00     0.183 C 
ATOM     24  C   UNL     1       1.184  -7.049   3.610  1.00  0.00     0.183 C 
ATOM     25  C   UNL     1      -0.724  -8.817   2.640  1.00  0.00     0.283 C 
ATOM     26  C   UNL     1       1.642  -8.466   3.209  1.00  0.00     0.283 C 
ATOM     27  N   UNL     1       0.676  -9.198   2.337  1.00  0.00    -0.334 N 
ATOM     28  H   UNL     1      -0.459  -4.230   4.095  1.00  0.00     0.171 HD
ATOM     29  O   UNL     1       0.200  -4.784   1.109  1.00  0.00    -0.248 OA
ATOM     30  C   UNL     1       0.996  -9.029   0.898  1.00  0.00     0.332 C 
ATOM     31  H   UNL     1       0.766 -10.223   2.547  1.00  0.00     0.347 HD
ENDBRANCH   4  20
TORSDOF 2
