REMARK SMILES O=C([O-])c1nc(O)nc(O)c1F
REMARK SMILES IDX 9 1 8 2 6 3 5 4 4 5 11 6 12 7 10 8 7 10 2 12 1 13 3 14
REMARK H PARENT 10 9 7 11
ROOT
ATOM      1  C   UNL     1      -0.654   1.250  -0.065  1.00  0.00     0.254 A 
ATOM      2  N   UNL     1      -1.607   0.283  -0.014  1.00  0.00    -0.157 NA
ATOM      3  C   UNL     1      -1.267  -1.032   0.003  1.00  0.00     0.318 A 
ATOM      4  N   UNL     1       0.041  -1.395  -0.031  1.00  0.00    -0.191 NA
ATOM      5  C   UNL     1       1.035  -0.467  -0.082  1.00  0.00     0.133 A 
ATOM      6  C   UNL     1       0.696   0.897  -0.100  1.00  0.00     0.212 A 
ATOM      7  F   UNL     1       1.644   1.867  -0.151  1.00  0.00    -0.199 F 
ENDROOT
BRANCH   1   8
ATOM      8  O   UNL     1      -1.024   2.592  -0.082  1.00  0.00    -0.491 OA
ATOM      9  H   UNL     1      -2.000   2.862  -0.056  1.00  0.00     0.295 HD
ENDBRANCH   1   8
BRANCH   3  10
ATOM     10  O   UNL     1      -2.254  -2.010   0.054  1.00  0.00    -0.479 OA
ATOM     11  H   UNL     1      -3.235  -1.757   0.080  1.00  0.00     0.297 HD
ENDBRANCH   3  10
BRANCH   5  12
ATOM     12  C   UNL     1       2.439  -0.923  -0.117  1.00  0.00     0.093 C 
ATOM     13  O   UNL     1       2.698  -2.155  -0.099  1.00  0.00    -0.543 OA
ATOM     14  O   UNL     1       3.488  -0.013  -0.169  1.00  0.00    -0.543 OA
ENDBRANCH   5  12
TORSDOF 3
