REMARK SMILES O=C(Nc1ccc(C(=O)[O-])c(O)c1)c1ccccc1
REMARK SMILES IDX 7 1 6 2 11 3 5 4 13 5 4 6 8 7 9 8 10 9 12 10 3 12 2 13 1 15
REMARK SMILES IDX 14 16 15 17 19 18 16 19 18 20 17 21
REMARK H PARENT 12 11 3 14
ROOT
ATOM      1  C   UNL     1       4.056  -0.270  -0.224  1.00  0.00     0.039 A 
ATOM      2  C   UNL     1       3.476  -1.532  -0.007  1.00  0.00     0.016 A 
ATOM      3  C   UNL     1       3.212   0.859  -0.328  1.00  0.00     0.126 A 
ATOM      4  C   UNL     1       2.092  -1.672   0.113  1.00  0.00     0.027 A 
ATOM      5  C   UNL     1       1.822   0.709  -0.204  1.00  0.00     0.073 A 
ATOM      6  C   UNL     1       1.254  -0.553   0.035  1.00  0.00     0.045 A 
ENDROOT
BRANCH   1   7
ATOM      7  C   UNL     1       5.533  -0.162  -0.344  1.00  0.00     0.075 C 
ATOM      8  O   UNL     1       6.090   0.952  -0.534  1.00  0.00    -0.545 OA
ATOM      9  O   UNL     1       6.329  -1.297  -0.247  1.00  0.00    -0.545 OA
ENDBRANCH   1   7
BRANCH   3  10
ATOM     10  O   UNL     1       3.743   2.128  -0.559  1.00  0.00    -0.507 OA
ATOM     11  H   UNL     1       3.153   2.948  -0.637  1.00  0.00     0.293 HD
ENDBRANCH   3  10
BRANCH   6  12
ATOM     12  N   UNL     1      -0.170  -0.727   0.142  1.00  0.00    -0.322 N 
ATOM     13  C   UNL     1      -1.057   0.268   0.681  1.00  0.00     0.255 C 
ATOM     14  H   UNL     1      -0.564  -1.670  -0.076  1.00  0.00     0.170 HD
ATOM     15  O   UNL     1      -0.603   1.157   1.452  1.00  0.00    -0.269 OA
BRANCH  13  16
ATOM     16  C   UNL     1      -2.510   0.233   0.383  1.00  0.00     0.040 A 
ATOM     17  C   UNL     1      -3.418   0.927   1.204  1.00  0.00     0.014 A 
ATOM     18  C   UNL     1      -3.003  -0.472  -0.732  1.00  0.00     0.014 A 
ATOM     19  C   UNL     1      -4.788   0.903   0.925  1.00  0.00     0.001 A 
ATOM     20  C   UNL     1      -4.374  -0.492  -1.006  1.00  0.00     0.001 A 
ATOM     21  C   UNL     1      -5.266   0.192  -0.178  1.00  0.00     0.000 A 
ENDBRANCH  13  16
ENDBRANCH   6  12
TORSDOF 4
