REMARK SMILES COc1cc(NC(=O)c2cc3ccccc3cc2O)c(OC)cc1Cl
REMARK SMILES IDX 6 1 7 2 8 3 5 5 3 6 4 7 24 8 23 9 20 10 25 11 2 12 1 13
REMARK SMILES IDX 21 14 22 15 9 16 10 17 18 18 11 19 17 20 12 21 16 22 13 23
REMARK SMILES IDX 15 24 14 25 19 26
REMARK H PARENT 6 4 19 27
ROOT
ATOM      1  N   UNL     1      -0.770   0.038   0.366  1.00  0.00    -0.319 N 
ATOM      2  C   UNL     1       0.269  -0.540  -0.441  1.00  0.00     0.259 C 
ATOM      3  O   UNL     1      -0.026  -1.212  -1.467  1.00  0.00    -0.269 OA
ATOM      4  H   UNL     1      -0.517   0.771   1.066  1.00  0.00     0.170 HD
ENDROOT
BRANCH   1   5
ATOM      5  C   UNL     1      -2.164  -0.238   0.162  1.00  0.00     0.087 A 
ATOM      6  C   UNL     1      -4.440   0.607  -0.102  1.00  0.00     0.139 A 
ATOM      7  C   UNL     1      -3.065   0.833   0.095  1.00  0.00     0.078 A 
ATOM      8  C   UNL     1      -4.905  -0.710  -0.216  1.00  0.00     0.086 A 
ATOM      9  C   UNL     1      -4.016  -1.785  -0.122  1.00  0.00     0.073 A 
ATOM     10  C   UNL     1      -2.642  -1.562   0.083  1.00  0.00     0.144 A 
ATOM     11  Cl  UNL     1      -6.615  -1.031  -0.466  1.00  0.00    -0.080 Cl
BRANCH   6  12
ATOM     12  O   UNL     1      -5.365   1.660  -0.188  1.00  0.00    -0.495 OA
ATOM     13  C   UNL     1      -5.028   3.040  -0.089  1.00  0.00     0.278 C 
ENDBRANCH   6  12
BRANCH  10  14
ATOM     14  O   UNL     1      -1.735  -2.623   0.237  1.00  0.00    -0.495 OA
ATOM     15  C   UNL     1      -2.082  -4.002   0.170  1.00  0.00     0.278 C 
ENDBRANCH  10  14
ENDBRANCH   1   5
BRANCH   2  16
ATOM     16  C   UNL     1       1.690  -0.307  -0.110  1.00  0.00     0.082 A 
ATOM     17  C   UNL     1       2.122   1.004   0.152  1.00  0.00     0.026 A 
ATOM     18  C   UNL     1       2.629  -1.365  -0.085  1.00  0.00     0.128 A 
ATOM     19  C   UNL     1       3.471   1.272   0.421  1.00  0.00    -0.017 A 
ATOM     20  C   UNL     1       3.978  -1.094   0.170  1.00  0.00     0.055 A 
ATOM     21  C   UNL     1       3.903   2.584   0.678  1.00  0.00     0.009 A 
ATOM     22  C   UNL     1       4.408   0.214   0.426  1.00  0.00    -0.015 A 
ATOM     23  C   UNL     1       5.252   2.840   0.940  1.00  0.00     0.001 A 
ATOM     24  C   UNL     1       5.761   0.484   0.690  1.00  0.00     0.009 A 
ATOM     25  C   UNL     1       6.178   1.793   0.946  1.00  0.00     0.001 A 
BRANCH  18  26
ATOM     26  O   UNL     1       2.254  -2.696  -0.282  1.00  0.00    -0.507 OA
ATOM     27  H   UNL     1       1.291  -2.994  -0.370  1.00  0.00     0.293 HD
ENDBRANCH  18  26
ENDBRANCH   2  16
TORSDOF 5
