REMARK SMILES COc1cc(/C=C2\CCOC2=O)cc(OC)c1OC
REMARK SMILES IDX 3 1 4 2 5 3 13 4 14 5 17 6 2 7 1 8 18 9 19 10 6 11 7 12 8 13
REMARK SMILES IDX 11 14 9 15 10 16 12 17 15 18 16 19
REMARK H PARENT
ROOT
ATOM      1  C   UNL     1      -1.340  -0.648   0.728  1.00  0.00     0.165 A 
ATOM      2  C   UNL     1      -0.010  -0.843   0.305  1.00  0.00     0.058 A 
ATOM      3  C   UNL     1       0.462  -0.263  -0.878  1.00  0.00    -0.017 A 
ATOM      4  C   UNL     1      -0.414   0.473  -1.679  1.00  0.00     0.058 A 
ATOM      5  C   UNL     1      -1.746   0.680  -1.280  1.00  0.00     0.165 A 
ATOM      6  C   UNL     1      -2.214   0.129  -0.076  1.00  0.00     0.203 A 
ENDROOT
BRANCH   1   7
ATOM      7  O   UNL     1      -1.804  -1.218   1.924  1.00  0.00    -0.493 OA
ATOM      8  C   UNL     1      -1.018  -1.999   2.818  1.00  0.00     0.278 C 
ENDBRANCH   1   7
BRANCH   6   9
ATOM      9  O   UNL     1      -3.557   0.390   0.258  1.00  0.00    -0.490 OA
ATOM     10  C   UNL     1      -4.244  -0.051   1.424  1.00  0.00     0.278 C 
ENDBRANCH   6   9
BRANCH   3  11
ATOM     11  C   UNL     1       1.850  -0.474  -1.337  1.00  0.00     0.019 C 
BRANCH  11  12
ATOM     12  C   UNL     1       2.929  -0.241  -0.575  1.00  0.00     0.041 C 
ATOM     13  C   UNL     1       2.961   0.312   0.818  1.00  0.00     0.085 C 
ATOM     14  C   UNL     1       4.297  -0.352  -1.020  1.00  0.00     0.334 C 
ATOM     15  C   UNL     1       4.462   0.569   1.092  1.00  0.00     0.238 C 
ATOM     16  O   UNL     1       5.167   0.101  -0.054  1.00  0.00    -0.462 OA
ATOM     17  O   UNL     1       4.670  -0.792  -2.140  1.00  0.00    -0.247 OA
ENDBRANCH  11  12
ENDBRANCH   3  11
BRANCH   5  18
ATOM     18  O   UNL     1      -2.643   1.433  -2.057  1.00  0.00    -0.493 OA
ATOM     19  C   UNL     1      -2.317   2.053  -3.297  1.00  0.00     0.278 C 
ENDBRANCH   5  18
TORSDOF 5
