REMARK SMILES Cn1ncc2c(Nc3ccccc3Cl)nc(Cl)nc21
REMARK SMILES IDX 7 1 6 3 2 4 3 5 19 6 4 7 18 8 5 9 16 10 15 11 1 12 17 13
REMARK SMILES IDX 8 14 9 15 13 16 10 17 12 18 11 19 14 20
REMARK H PARENT 7 2
ROOT
ATOM      1  N   UNL     1      -0.917  -0.893  -0.062  1.00  0.00    -0.338 N 
ATOM      2  H   UNL     1      -0.860  -1.903  -0.323  1.00  0.00     0.168 HD
ENDROOT
BRANCH   1   3
ATOM      3  C   UNL     1       0.294  -0.123  -0.022  1.00  0.00     0.146 A 
ATOM      4  N   UNL     1       3.748  -0.770   0.107  1.00  0.00    -0.250 N 
ATOM      5  N   UNL     1       3.338  -2.035   0.106  1.00  0.00    -0.179 NA
ATOM      6  C   UNL     1       2.668   0.023   0.053  1.00  0.00     0.164 A 
ATOM      7  C   UNL     1       1.980  -2.042   0.069  1.00  0.00     0.149 A 
ATOM      8  N   UNL     1       2.638   1.377   0.014  1.00  0.00    -0.198 NA
ATOM      9  C   UNL     1       1.542  -0.733   0.033  1.00  0.00     0.082 A 
ATOM     10  C   UNL     1       1.417   1.989  -0.044  1.00  0.00     0.226 A 
ATOM     11  N   UNL     1       0.265   1.244  -0.065  1.00  0.00    -0.200 NA
ATOM     12  C   UNL     1       5.144  -0.355   0.082  1.00  0.00     0.176 C 
ATOM     13  Cl  UNL     1       1.322   3.735  -0.096  1.00  0.00    -0.041 Cl
ENDBRANCH   1   3
BRANCH   1  14
ATOM     14  C   UNL     1      -2.216  -0.286  -0.013  1.00  0.00     0.058 A 
ATOM     15  C   UNL     1      -3.115  -0.513  -1.065  1.00  0.00     0.027 A 
ATOM     16  C   UNL     1      -2.621   0.498   1.088  1.00  0.00     0.064 A 
ATOM     17  C   UNL     1      -4.386   0.066  -1.046  1.00  0.00     0.002 A 
ATOM     18  C   UNL     1      -3.898   1.074   1.099  1.00  0.00     0.023 A 
ATOM     19  C   UNL     1      -4.775   0.864   0.032  1.00  0.00     0.002 A 
ATOM     20  Cl  UNL     1      -1.591   0.712   2.499  1.00  0.00    -0.082 Cl
ENDBRANCH   1  14
TORSDOF 2
