REMARK SMILES C=C(O)C1=C(O)[C@@]2(C)c3c(OC(C)=O)c(C)c(OC(C)=O)c(C(C)=O)c3O[C@@H]2C=C1O
REMARK SMILES IDX 4 1 5 2 7 3 8 4 9 5 10 6 15 7 16 8 17 9 22 10 26 11 27 12
REMARK SMILES IDX 28 13 29 14 30 15 2 16 1 17 3 18 6 20 31 22 11 24 12 25
REMARK SMILES IDX 13 26 14 27 23 28 24 29 25 30 18 31 19 32 20 33 21 34
REMARK H PARENT 3 19 6 21 31 23
ROOT
ATOM      1  C   UNL     1       3.971   0.250  -0.081  1.00  0.00     0.096 C 
ATOM      2  C   UNL     1       2.705   0.675   0.210  1.00  0.00     0.122 C 
ATOM      3  C   UNL     1       1.583  -0.353   0.102  1.00  0.00     0.098 C 
ATOM      4  C   UNL     1       1.674  -1.342   1.300  1.00  0.00     0.030 C 
ATOM      5  C   UNL     1       0.121  -0.016  -0.071  1.00  0.00     0.056 A 
ATOM      6  C   UNL     1      -0.741   0.697   0.777  1.00  0.00     0.145 A 
ATOM      7  C   UNL     1      -2.144   0.586   0.566  1.00  0.00     0.036 A 
ATOM      8  C   UNL     1      -3.126   1.270   1.487  1.00  0.00     0.052 C 
ATOM      9  C   UNL     1      -2.642  -0.247  -0.473  1.00  0.00     0.152 A 
ATOM     10  C   UNL     1      -1.753  -1.010  -1.270  1.00  0.00     0.103 A 
ATOM     11  C   UNL     1      -0.388  -0.909  -1.004  1.00  0.00     0.143 A 
ATOM     12  O   UNL     1       0.619  -1.665  -1.598  1.00  0.00    -0.483 OA
ATOM     13  C   UNL     1       1.832  -1.018  -1.267  1.00  0.00     0.218 C 
ATOM     14  C   UNL     1       3.118  -1.780  -1.236  1.00  0.00     0.065 C 
ATOM     15  C   UNL     1       4.171  -1.124  -0.695  1.00  0.00     0.129 C 
ENDROOT
BRANCH   1  16
ATOM     16  C   UNL     1       5.133   1.150   0.115  1.00  0.00     0.122 C 
ATOM     17  C   UNL     1       6.071   1.276  -0.824  1.00  0.00     0.059 C 
BRANCH  16  18
ATOM     18  O   UNL     1       5.262   1.885   1.293  1.00  0.00    -0.508 OA
ATOM     19  H   UNL     1       4.604   1.788   2.060  1.00  0.00     0.293 HD
ENDBRANCH  16  18
ENDBRANCH   1  16
BRANCH   2  20
ATOM     20  O   UNL     1       2.469   2.010   0.528  1.00  0.00    -0.510 OA
ATOM     21  H   UNL     1       1.550   2.415   0.462  1.00  0.00     0.293 HD
ENDBRANCH   2  20
BRANCH  15  22
ATOM     22  O   UNL     1       5.436  -1.712  -0.686  1.00  0.00    -0.507 OA
ATOM     23  H   UNL     1       5.601  -2.628  -1.087  1.00  0.00     0.293 HD
ENDBRANCH  15  22
BRANCH   6  24
ATOM     24  O   UNL     1      -0.204   1.403   1.864  1.00  0.00    -0.426 OA
BRANCH  24  25
ATOM     25  C   UNL     1      -0.470   2.750   2.138  1.00  0.00     0.308 C 
ATOM     26  C   UNL     1      -0.012   3.334   3.429  1.00  0.00     0.139 C 
ATOM     27  O   UNL     1      -1.017   3.488   1.276  1.00  0.00    -0.252 OA
ENDBRANCH  24  25
ENDBRANCH   6  24
BRANCH  10  28
ATOM     28  C   UNL     1      -2.220  -1.894  -2.363  1.00  0.00     0.167 C 
ATOM     29  C   UNL     1      -3.261  -1.449  -3.343  1.00  0.00     0.094 C 
ATOM     30  O   UNL     1      -1.726  -3.048  -2.482  1.00  0.00    -0.294 OA
ENDBRANCH  10  28
BRANCH   9  31
ATOM     31  O   UNL     1      -4.026  -0.341  -0.664  1.00  0.00    -0.425 OA
BRANCH  31  32
ATOM     32  C   UNL     1      -4.756  -1.493  -0.352  1.00  0.00     0.308 C 
ATOM     33  C   UNL     1      -6.223  -1.525  -0.618  1.00  0.00     0.139 C 
ATOM     34  O   UNL     1      -4.198  -2.482   0.200  1.00  0.00    -0.252 OA
ENDBRANCH  31  32
ENDBRANCH   9  31
TORSDOF 9
