REMARK SMILES Sc1nccn1-c1ccccc1Cl
REMARK SMILES IDX 2 1 3 2 4 3 5 4 6 5 1 6 7 8 8 9 12 10 9 11 11 12 10 13 13 14
REMARK H PARENT 1 7
ROOT
ATOM      1  C   UNL     1      -2.109  -0.262   0.685  1.00  0.00     0.169 A 
ATOM      2  N   UNL     1      -3.359   0.041   0.277  1.00  0.00    -0.231 NA
ATOM      3  C   UNL     1      -3.178   0.650  -0.912  1.00  0.00     0.132 A 
ATOM      4  C   UNL     1      -1.833   0.711  -1.203  1.00  0.00     0.114 A 
ATOM      5  N   UNL     1      -1.162   0.139  -0.189  1.00  0.00    -0.294 N 
ENDROOT
BRANCH   1   6
ATOM      6  S   UNL     1      -1.770  -1.060   2.253  1.00  0.00    -0.105 SA
ATOM      7  H   UNL     1      -1.666   0.176   2.917  1.00  0.00     0.111 HD
ENDBRANCH   1   6
BRANCH   5   8
ATOM      8  C   UNL     1       0.259  -0.050  -0.101  1.00  0.00     0.066 A 
ATOM      9  C   UNL     1       0.780  -1.347   0.045  1.00  0.00     0.028 A 
ATOM     10  C   UNL     1       1.145   1.045  -0.173  1.00  0.00     0.065 A 
ATOM     11  C   UNL     1       2.160  -1.551   0.117  1.00  0.00     0.002 A 
ATOM     12  C   UNL     1       2.527   0.831  -0.100  1.00  0.00     0.023 A 
ATOM     13  C   UNL     1       3.033  -0.464   0.042  1.00  0.00     0.002 A 
ATOM     14  Cl  UNL     1       0.555   2.697  -0.297  1.00  0.00    -0.082 Cl
ENDBRANCH   5   8
TORSDOF 2
