REMARK SMILES COc1ccc(NC(=O)C=C(C)O)c(OC)c1
REMARK SMILES IDX 8 1 9 2 7 3 10 5 11 6 12 7 13 8 6 10 5 11 14 12 4 13 17 14
REMARK SMILES IDX 3 15 15 16 16 17 2 18 1 19
REMARK H PARENT 7 4 13 9
ROOT
ATOM      1  C   UNL     1       2.042   0.435  -0.112  1.00  0.00     0.251 C 
ATOM      2  O   UNL     1       1.747   1.091  -1.147  1.00  0.00    -0.269 OA
ATOM      3  N   UNL     1       1.009  -0.197   0.661  1.00  0.00    -0.319 N 
ATOM      4  H   UNL     1       1.299  -0.910   1.368  1.00  0.00     0.170 HD
ENDROOT
BRANCH   1   5
ATOM      5  C   UNL     1       3.443   0.338   0.347  1.00  0.00     0.112 C 
BRANCH   5   6
ATOM      6  C   UNL     1       4.534   0.469  -0.431  1.00  0.00     0.095 C 
ATOM      7  C   UNL     1       5.889   0.466   0.206  1.00  0.00     0.087 C 
BRANCH   6   8
ATOM      8  O   UNL     1       4.471   0.571  -1.824  1.00  0.00    -0.512 OA
ATOM      9  H   UNL     1       3.636   0.392  -2.365  1.00  0.00     0.293 HD
ENDBRANCH   6   8
ENDBRANCH   5   6
ENDBRANCH   1   5
BRANCH   3  10
ATOM     10  C   UNL     1      -0.398   0.012   0.440  1.00  0.00     0.084 A 
ATOM     11  C   UNL     1      -0.894   1.292   0.140  1.00  0.00     0.034 A 
ATOM     12  C   UNL     1      -1.294  -1.064   0.583  1.00  0.00     0.146 A 
ATOM     13  C   UNL     1      -2.262   1.497  -0.048  1.00  0.00     0.049 A 
ATOM     14  C   UNL     1      -2.673  -0.846   0.393  1.00  0.00     0.095 A 
ATOM     15  C   UNL     1      -3.163   0.425   0.075  1.00  0.00     0.122 A 
BRANCH  12  16
ATOM     16  O   UNL     1      -0.781  -2.332   0.902  1.00  0.00    -0.494 OA
ATOM     17  C   UNL     1      -1.572  -3.504   1.073  1.00  0.00     0.278 C 
ENDBRANCH  12  16
BRANCH  15  18
ATOM     18  O   UNL     1      -4.545   0.581  -0.105  1.00  0.00    -0.497 OA
ATOM     19  C   UNL     1      -5.180   1.813  -0.429  1.00  0.00     0.278 C 
ENDBRANCH  15  18
ENDBRANCH   3  10
TORSDOF 6
