REMARK SMILES CC(=O)Oc1c(C)c(OC(C)=O)c2c(c1C(C)=O)O[C@@H]1C=C(O)C(C(C)=O)=C(O)[C@@]21C
REMARK SMILES IDX 22 1 21 2 20 3 19 4 14 5 15 6 5 7 6 8 7 9 8 10 13 11 30 12
REMARK SMILES IDX 31 13 28 14 24 15 23 16 25 18 26 19 27 20 29 21 16 23 17 24
REMARK SMILES IDX 18 25 9 26 10 27 11 28 12 29 4 30 2 31 1 32 3 33
REMARK H PARENT 23 17 29 22
ROOT
ATOM      1  C   UNL     1      -3.674  -2.121  -0.675  1.00  0.00     0.129 C 
ATOM      2  C   UNL     1      -2.456  -2.600  -1.020  1.00  0.00     0.065 C 
ATOM      3  C   UNL     1      -1.304  -2.050  -0.246  1.00  0.00     0.218 C 
ATOM      4  O   UNL     1       0.026  -2.298  -0.658  1.00  0.00    -0.483 OA
ATOM      5  C   UNL     1       0.786  -1.257  -0.133  1.00  0.00     0.143 A 
ATOM      6  C   UNL     1       2.183  -1.206  -0.054  1.00  0.00     0.103 A 
ATOM      7  C   UNL     1       2.772  -0.026   0.470  1.00  0.00     0.152 A 
ATOM      8  C   UNL     1       1.958   1.059   0.888  1.00  0.00     0.036 A 
ATOM      9  C   UNL     1       2.608   2.295   1.454  1.00  0.00     0.052 C 
ATOM     10  C   UNL     1       0.553   1.000   0.706  1.00  0.00     0.145 A 
ATOM     11  C   UNL     1      -0.017  -0.216   0.314  1.00  0.00     0.056 A 
ATOM     12  C   UNL     1      -1.422  -0.516  -0.147  1.00  0.00     0.098 C 
ATOM     13  C   UNL     1      -1.605   0.180  -1.526  1.00  0.00     0.030 C 
ATOM     14  C   UNL     1      -2.672  -0.299   0.700  1.00  0.00     0.121 C 
ATOM     15  C   UNL     1      -3.790  -1.014   0.357  1.00  0.00     0.097 C 
ENDROOT
BRANCH   1  16
ATOM     16  O   UNL     1      -4.823  -2.631  -1.279  1.00  0.00    -0.507 OA
ATOM     17  H   UNL     1      -4.778  -3.366  -1.975  1.00  0.00     0.293 HD
ENDBRANCH   1  16
BRANCH  15  18
ATOM     18  C   UNL     1      -5.098  -0.795   1.023  1.00  0.00     0.166 C 
ATOM     19  C   UNL     1      -5.533   0.557   1.503  1.00  0.00     0.094 C 
ATOM     20  O   UNL     1      -5.874  -1.772   1.196  1.00  0.00    -0.294 OA
ENDBRANCH  15  18
BRANCH  14  21
ATOM     21  O   UNL     1      -2.683   0.553   1.803  1.00  0.00    -0.510 OA
ATOM     22  H   UNL     1      -1.838   0.929   2.207  1.00  0.00     0.293 HD
ENDBRANCH  14  21
BRANCH   6  23
ATOM     23  C   UNL     1       3.006  -2.376  -0.448  1.00  0.00     0.167 C 
ATOM     24  C   UNL     1       2.635  -3.242  -1.612  1.00  0.00     0.094 C 
ATOM     25  O   UNL     1       4.024  -2.679   0.231  1.00  0.00    -0.294 OA
ENDBRANCH   6  23
BRANCH  10  26
ATOM     26  O   UNL     1      -0.263   2.123   0.881  1.00  0.00    -0.426 OA
BRANCH  26  27
ATOM     27  C   UNL     1      -0.108   3.310   0.157  1.00  0.00     0.308 C 
ATOM     28  C   UNL     1      -0.954   4.489   0.498  1.00  0.00     0.139 C 
ATOM     29  O   UNL     1       0.681   3.370  -0.825  1.00  0.00    -0.252 OA
ENDBRANCH  26  27
ENDBRANCH  10  26
BRANCH   7  30
ATOM     30  O   UNL     1       4.164   0.101   0.569  1.00  0.00    -0.425 OA
BRANCH  30  31
ATOM     31  C   UNL     1       5.014   0.084  -0.543  1.00  0.00     0.308 C 
ATOM     32  C   UNL     1       6.489   0.137  -0.338  1.00  0.00     0.139 C 
ATOM     33  O   UNL     1       4.545   0.085  -1.714  1.00  0.00    -0.252 OA
ENDBRANCH  30  31
ENDBRANCH   7  30
TORSDOF 8
