REMARK SMILES C=C(O)c1c(OC(C)=O)c(C)c(OC(C)=O)c2c1O[C@H]1C=C(O)C(C(C)=O)=C(O)[C@@]21C
REMARK SMILES IDX 22 1 21 2 20 3 19 4 18 5 4 6 5 7 10 8 11 9 12 10 17 11 30 12
REMARK SMILES IDX 31 13 28 14 24 15 23 16 25 18 26 19 27 20 29 21 2 23 1 24
REMARK SMILES IDX 3 25 13 27 14 28 15 29 16 30 6 31 7 32 8 33 9 34
REMARK H PARENT 23 17 29 22 3 26
ROOT
ATOM      1  C   UNL     1      -3.790  -1.605  -0.316  1.00  0.00     0.129 C 
ATOM      2  C   UNL     1      -2.838  -2.228  -1.008  1.00  0.00     0.065 C 
ATOM      3  C   UNL     1      -1.468  -1.653  -1.171  1.00  0.00     0.218 C 
ATOM      4  O   UNL     1      -0.575  -2.230  -0.229  1.00  0.00    -0.483 OA
ATOM      5  C   UNL     1       0.358  -1.291   0.154  1.00  0.00     0.143 A 
ATOM      6  C   UNL     1       1.521  -1.545   0.884  1.00  0.00     0.101 A 
ATOM      7  C   UNL     1       2.442  -0.487   1.050  1.00  0.00     0.152 A 
ATOM      8  C   UNL     1       2.184   0.786   0.476  1.00  0.00     0.036 A 
ATOM      9  C   UNL     1       3.263   1.840   0.529  1.00  0.00     0.052 C 
ATOM     10  C   UNL     1       0.946   1.027  -0.188  1.00  0.00     0.145 A 
ATOM     11  C   UNL     1       0.033  -0.041  -0.309  1.00  0.00     0.056 A 
ATOM     12  C   UNL     1      -1.345  -0.106  -0.950  1.00  0.00     0.098 C 
ATOM     13  C   UNL     1      -1.420   0.643  -2.291  1.00  0.00     0.030 C 
ATOM     14  C   UNL     1      -2.420   0.421   0.013  1.00  0.00     0.121 C 
ATOM     15  C   UNL     1      -3.553  -0.269   0.274  1.00  0.00     0.097 C 
ENDROOT
BRANCH   1  16
ATOM     16  O   UNL     1      -5.035  -2.215  -0.150  1.00  0.00    -0.507 OA
ATOM     17  H   UNL     1      -5.243  -3.129  -0.537  1.00  0.00     0.293 HD
ENDBRANCH   1  16
BRANCH  15  18
ATOM     18  C   UNL     1      -4.603   0.290   1.161  1.00  0.00     0.166 C 
ATOM     19  C   UNL     1      -5.098   1.697   1.011  1.00  0.00     0.094 C 
ATOM     20  O   UNL     1      -5.106  -0.437   2.058  1.00  0.00    -0.294 OA
ENDBRANCH  15  18
BRANCH  14  21
ATOM     21  O   UNL     1      -2.252   1.665   0.623  1.00  0.00    -0.510 OA
ATOM     22  H   UNL     1      -1.499   2.288   0.391  1.00  0.00     0.293 HD
ENDBRANCH  14  21
BRANCH   6  23
ATOM     23  C   UNL     1       1.778  -2.883   1.469  1.00  0.00     0.123 C 
ATOM     24  C   UNL     1       1.670  -3.991   0.735  1.00  0.00     0.059 C 
BRANCH  23  25
ATOM     25  O   UNL     1       2.148  -3.000   2.808  1.00  0.00    -0.508 OA
ATOM     26  H   UNL     1       2.196  -2.191   3.415  1.00  0.00     0.293 HD
ENDBRANCH  23  25
ENDBRANCH   6  23
BRANCH  10  27
ATOM     27  O   UNL     1       0.658   2.258  -0.796  1.00  0.00    -0.426 OA
BRANCH  27  28
ATOM     28  C   UNL     1       0.751   3.502  -0.159  1.00  0.00     0.308 C 
ATOM     29  C   UNL     1       0.656   4.749  -0.967  1.00  0.00     0.139 C 
ATOM     30  O   UNL     1       0.843   3.580   1.096  1.00  0.00    -0.252 OA
ENDBRANCH  27  28
ENDBRANCH  10  27
BRANCH   7  31
ATOM     31  O   UNL     1       3.633  -0.699   1.756  1.00  0.00    -0.425 OA
BRANCH  31  32
ATOM     32  C   UNL     1       4.719  -1.416   1.237  1.00  0.00     0.308 C 
ATOM     33  C   UNL     1       4.766  -1.857  -0.196  1.00  0.00     0.139 C 
ATOM     34  O   UNL     1       5.678  -1.703   2.000  1.00  0.00    -0.252 OA
ENDBRANCH  31  32
ENDBRANCH   7  31
TORSDOF 9
