REMARK SMILES OCc1nnn(-c2ccccc2)c1CO
REMARK SMILES IDX 3 1 4 2 5 3 6 4 13 5 2 6 1 7 14 9 15 10 7 12 8 13 12 14 9 15
REMARK SMILES IDX 11 16 10 17
REMARK H PARENT 1 8 15 11
ROOT
ATOM      1  C   UNL     1      -2.192   0.080   1.046  1.00  0.00     0.114 A 
ATOM      2  N   UNL     1      -1.693   0.611   2.179  1.00  0.00    -0.132 NA
ATOM      3  N   UNL     1      -0.381   0.708   2.014  1.00  0.00    -0.062 NA
ATOM      4  N   UNL     1      -0.024   0.261   0.819  1.00  0.00    -0.215 N 
ATOM      5  C   UNL     1      -1.144  -0.123   0.169  1.00  0.00     0.096 A 
ENDROOT
BRANCH   1   6
ATOM      6  C   UNL     1      -3.652  -0.127   0.785  1.00  0.00     0.216 C 
BRANCH   6   7
ATOM      7  O   UNL     1      -4.169   0.950   0.054  1.00  0.00    -0.390 OA
ATOM      8  H   UNL     1      -4.259   1.708   0.689  1.00  0.00     0.211 HD
ENDBRANCH   6   7
ENDBRANCH   1   6
BRANCH   5   9
ATOM      9  C   UNL     1      -1.240  -0.613  -1.247  1.00  0.00     0.214 C 
BRANCH   9  10
ATOM     10  O   UNL     1      -1.286  -2.011  -1.253  1.00  0.00    -0.390 OA
ATOM     11  H   UNL     1      -1.338  -2.281  -2.207  1.00  0.00     0.211 HD
ENDBRANCH   9  10
ENDBRANCH   5   9
BRANCH   4  12
ATOM     12  C   UNL     1       1.336   0.251   0.353  1.00  0.00     0.067 A 
ATOM     13  C   UNL     1       1.861  -0.864  -0.324  1.00  0.00     0.028 A 
ATOM     14  C   UNL     1       2.174   1.345   0.624  1.00  0.00     0.028 A 
ATOM     15  C   UNL     1       3.192  -0.867  -0.751  1.00  0.00     0.002 A 
ATOM     16  C   UNL     1       3.505   1.339   0.195  1.00  0.00     0.002 A 
ATOM     17  C   UNL     1       4.013   0.235  -0.496  1.00  0.00     0.000 A 
ENDBRANCH   4  12
TORSDOF 5
