REMARK SMILES C[NH+]1CCN(c2nc(Cl)c(Br)c(=N)[nH]2)CC1
REMARK SMILES IDX 14 1 6 2 7 3 8 4 9 5 10 6 11 7 12 8 5 10 4 11 15 12 3 13
REMARK SMILES IDX 16 14 2 15 1 16 13 18
REMARK H PARENT 14 9 2 17 13 19
ROOT
ATOM      1  N   UNL     1       2.334   0.108   0.953  1.00  0.00    -0.310 N 
ATOM      2  C   UNL     1       1.210   0.881   1.012  1.00  0.00     0.206 A 
ATOM      3  N   UNL     1       1.270   2.103   1.603  1.00  0.00    -0.201 NA
ATOM      4  C   UNL     1       2.418   2.576   2.148  1.00  0.00     0.150 A 
ATOM      5  Cl  UNL     1       2.405   4.166   2.894  1.00  0.00    -0.061 Cl
ATOM      6  C   UNL     1       3.580   1.795   2.108  1.00  0.00     0.097 A 
ATOM      7  Br  UNL     1       5.229   2.427   2.871  1.00  0.00    -0.043 Br
ATOM      8  C   UNL     1       3.513   0.539   1.489  1.00  0.00     0.142 A 
ATOM      9  H   UNL     1       2.303  -0.818   0.470  1.00  0.00     0.171 HD
ENDROOT
BRANCH   2  10
ATOM     10  N   UNL     1      -0.037   0.423   0.452  1.00  0.00    -0.331 N 
ATOM     11  C   UNL     1      -0.338  -1.010   0.356  1.00  0.00     0.181 C 
ATOM     12  C   UNL     1      -0.869   1.355  -0.319  1.00  0.00     0.181 C 
ATOM     13  C   UNL     1      -1.842  -1.252   0.525  1.00  0.00     0.283 C 
ATOM     14  C   UNL     1      -2.354   1.033  -0.118  1.00  0.00     0.283 C 
ATOM     15  N   UNL     1      -2.625  -0.394  -0.388  1.00  0.00    -0.334 N 
ATOM     16  C   UNL     1      -4.063  -0.673  -0.236  1.00  0.00     0.332 C 
ATOM     17  H   UNL     1      -2.360  -0.614  -1.379  1.00  0.00     0.347 HD
ENDBRANCH   2  10
BRANCH   8  18
ATOM     18  N   UNL     1       4.571  -0.207   1.425  1.00  0.00    -0.283 NA
ATOM     19  H   UNL     1       4.563  -1.149   0.972  1.00  0.00     0.189 HD
ENDBRANCH   8  18
TORSDOF 2
