REMARK SMILES CCOc1ccc2sc(NS(=O)(=O)c3ccc(N)cc3)nc2c1
REMARK SMILES IDX 10 1 9 3 4 4 5 5 23 6 6 7 22 8 7 9 21 10 8 11 3 12 2 13 1 14
REMARK SMILES IDX 11 15 12 16 13 17 14 18 15 19 20 20 16 21 19 22 17 23 18 24
REMARK H PARENT 10 2 18 25 18 26
ROOT
ATOM      1  N   UNL     1      -1.743   2.771   0.789  1.00  0.00    -0.255 N 
ATOM      2  H   UNL     1      -1.753   3.688   0.290  1.00  0.00     0.182 HD
ENDROOT
BRANCH   1   3
ATOM      3  C   UNL     1      -0.549   1.984   0.771  1.00  0.00     0.197 A 
ATOM      4  C   UNL     1       3.769   0.547  -0.116  1.00  0.00     0.121 A 
ATOM      5  C   UNL     1       3.412  -0.587   0.662  1.00  0.00     0.048 A 
ATOM      6  C   UNL     1       2.827   1.573  -0.317  1.00  0.00     0.076 A 
ATOM      7  C   UNL     1       2.130  -0.694   1.222  1.00  0.00     0.025 A 
ATOM      8  C   UNL     1       1.556   1.454   0.247  1.00  0.00     0.087 A 
ATOM      9  C   UNL     1       1.226   0.339   0.998  1.00  0.00     0.057 A 
ATOM     10  N   UNL     1       0.570   2.377   0.115  1.00  0.00    -0.219 NA
ATOM     11  S   UNL     1      -0.357   0.481   1.537  1.00  0.00    -0.096 S 
BRANCH   4  12
ATOM     12  O   UNL     1       5.039   0.699  -0.695  1.00  0.00    -0.494 OA
BRANCH  12  13
ATOM     13  C   UNL     1       6.079  -0.279  -0.687  1.00  0.00     0.226 C 
ATOM     14  C   UNL     1       5.785  -1.390  -1.690  1.00  0.00     0.049 C 
ENDBRANCH  12  13
ENDBRANCH   4  12
ENDBRANCH   1   3
BRANCH   1  15
ATOM     15  S   UNL     1      -3.195   2.244   1.576  1.00  0.00     0.263 S 
ATOM     16  O   UNL     1      -2.921   2.078   3.045  1.00  0.00    -0.201 OA
ATOM     17  O   UNL     1      -4.266   3.281   1.391  1.00  0.00    -0.201 OA
BRANCH  15  18
ATOM     18  C   UNL     1      -3.741   0.726   0.873  1.00  0.00     0.088 A 
ATOM     19  C   UNL     1      -3.615   0.509  -0.506  1.00  0.00     0.024 A 
ATOM     20  C   UNL     1      -4.300  -0.272   1.683  1.00  0.00     0.024 A 
ATOM     21  C   UNL     1      -4.036  -0.699  -1.070  1.00  0.00     0.027 A 
ATOM     22  C   UNL     1      -4.721  -1.480   1.119  1.00  0.00     0.027 A 
ATOM     23  C   UNL     1      -4.591  -1.700  -0.260  1.00  0.00     0.031 A 
BRANCH  23  24
ATOM     24  N   UNL     1      -5.021  -2.936  -0.836  1.00  0.00    -0.399 N 
ATOM     25  H   UNL     1      -5.435  -3.688  -0.241  1.00  0.00     0.156 HD
ATOM     26  H   UNL     1      -4.928  -3.109  -1.862  1.00  0.00     0.156 HD
ENDBRANCH  23  24
ENDBRANCH  15  18
ENDBRANCH   1  15
TORSDOF 6
