REMARK SMILES C=C(O)c1c(OC(C)=O)c(C)c(OC(C)=O)c2c1O[C@@H]1CC(=O)C(=C(C)O)C(=O)[C@@]21C
REMARK SMILES IDX 24 1 22 2 23 3 21 4 20 5 19 6 18 7 4 8 5 9 10 10 11 11 12 12
REMARK SMILES IDX 17 13 30 14 31 15 28 16 29 17 25 18 26 19 27 20 13 22 14 23
REMARK SMILES IDX 15 24 16 25 2 26 1 27 3 28 6 30 7 31 8 32 9 33
REMARK H PARENT 27 21 3 29
ROOT
ATOM      1  C   UNL     1      -3.949  -0.316   0.536  1.00  0.00     0.099 C 
ATOM      2  C   UNL     1      -4.003  -1.812   0.284  1.00  0.00     0.173 C 
ATOM      3  O   UNL     1      -5.025  -2.480   0.596  1.00  0.00    -0.294 OA
ATOM      4  C   UNL     1      -2.799  -2.578  -0.252  1.00  0.00     0.128 C 
ATOM      5  C   UNL     1      -1.543  -1.859   0.223  1.00  0.00     0.199 C 
ATOM      6  O   UNL     1      -0.275  -2.381  -0.142  1.00  0.00    -0.487 OA
ATOM      7  C   UNL     1       0.617  -1.316  -0.067  1.00  0.00     0.142 A 
ATOM      8  C   UNL     1       2.010  -1.392  -0.114  1.00  0.00     0.101 A 
ATOM      9  C   UNL     1       2.743  -0.177  -0.005  1.00  0.00     0.152 A 
ATOM     10  C   UNL     1       2.061   1.069   0.044  1.00  0.00     0.036 A 
ATOM     11  C   UNL     1       2.856   2.346   0.149  1.00  0.00     0.052 C 
ATOM     12  C   UNL     1       0.644   1.102  -0.009  1.00  0.00     0.145 A 
ATOM     13  C   UNL     1      -0.050  -0.109   0.026  1.00  0.00     0.056 A 
ATOM     14  C   UNL     1      -1.507  -0.386  -0.221  1.00  0.00     0.101 C 
ATOM     15  C   UNL     1      -1.779  -0.176  -1.734  1.00  0.00     0.029 C 
ATOM     16  C   UNL     1      -2.575   0.300   0.581  1.00  0.00     0.184 C 
ATOM     17  O   UNL     1      -2.308   1.313   1.282  1.00  0.00    -0.293 OA
ENDROOT
BRANCH   1  18
ATOM     18  C   UNL     1      -5.077   0.438   0.675  1.00  0.00     0.104 C 
ATOM     19  C   UNL     1      -5.033   1.889   1.065  1.00  0.00     0.087 C 
BRANCH  18  20
ATOM     20  O   UNL     1      -6.353  -0.075   0.421  1.00  0.00    -0.512 OA
ATOM     21  H   UNL     1      -6.532  -0.885  -0.156  1.00  0.00     0.293 HD
ENDBRANCH  18  20
ENDBRANCH   1  18
BRANCH  12  22
ATOM     22  O   UNL     1      -0.075   2.301  -0.086  1.00  0.00    -0.426 OA
BRANCH  22  23
ATOM     23  C   UNL     1       0.067   3.218  -1.132  1.00  0.00     0.308 C 
ATOM     24  C   UNL     1      -0.672   4.511  -1.075  1.00  0.00     0.139 C 
ATOM     25  O   UNL     1       0.751   2.933  -2.153  1.00  0.00    -0.252 OA
ENDBRANCH  22  23
ENDBRANCH  12  22
BRANCH   8  26
ATOM     26  C   UNL     1       2.653  -2.713  -0.299  1.00  0.00     0.123 C 
ATOM     27  C   UNL     1       3.650  -2.883  -1.173  1.00  0.00     0.059 C 
BRANCH  26  28
ATOM     28  O   UNL     1       2.177  -3.801   0.433  1.00  0.00    -0.508 OA
ATOM     29  H   UNL     1       2.574  -4.728   0.337  1.00  0.00     0.293 HD
ENDBRANCH  26  28
ENDBRANCH   8  26
BRANCH   9  30
ATOM     30  O   UNL     1       4.144  -0.179   0.055  1.00  0.00    -0.425 OA
BRANCH  30  31
ATOM     31  C   UNL     1       4.875  -0.880   1.021  1.00  0.00     0.308 C 
ATOM     32  C   UNL     1       6.360  -0.933   0.919  1.00  0.00     0.139 C 
ATOM     33  O   UNL     1       4.297  -1.410   2.009  1.00  0.00    -0.252 OA
ENDBRANCH  30  31
ENDBRANCH   9  30
TORSDOF 8
