REMARK SMILES Cc1cc(=S)[nH]c([S-])n1
REMARK SMILES IDX 7 1 8 2 6 3 9 4 4 5 2 6 3 7 5 8 1 9
REMARK H PARENT 6 10
ROOT
ATOM      1  C   UNL     1      -1.290  -1.274  -0.241  1.00  0.00    -0.018 A 
ATOM      2  S   UNL     1      -2.196  -2.788  -0.603  1.00  0.00    -0.742 S 
ATOM      3  N   UNL     1      -1.952  -0.163   0.186  1.00  0.00    -0.354 N 
ATOM      4  N   UNL     1       0.059  -1.246  -0.396  1.00  0.00    -0.265 NA
ATOM      5  C   UNL     1      -1.274   0.986   0.462  1.00  0.00     0.105 A 
ATOM      6  C   UNL     1       0.774  -0.121  -0.132  1.00  0.00     0.040 A 
ATOM      7  C   UNL     1       0.114   1.030   0.307  1.00  0.00     0.061 A 
ATOM      8  S   UNL     1      -2.082   2.316   0.975  1.00  0.00    -0.060 S 
ATOM      9  C   UNL     1       2.259  -0.120  -0.312  1.00  0.00     0.067 C 
ATOM     10  H   UNL     1      -2.990  -0.200   0.301  1.00  0.00     0.167 HD
ENDROOT
TORSDOF 0
