REMARK SMILES Cc1cnc2cc(Cl)ccc2c1SCC(=O)[O-]
REMARK SMILES IDX 14 1 15 2 16 3 17 4 13 5 12 6 11 7 2 8 10 9 5 10 3 11 9 12
REMARK SMILES IDX 4 13 6 14 7 15 1 16 8 17
REMARK H PARENT
ROOT
ATOM      1  C   UNL     1      -2.404  -0.280  -0.773  1.00  0.00     0.127 C 
ENDROOT
BRANCH   1   2
ATOM      2  C   UNL     1      -3.880  -0.494  -0.746  1.00  0.00     0.052 C 
ATOM      3  O   UNL     1      -4.653   0.358  -1.258  1.00  0.00    -0.549 OA
ATOM      4  O   UNL     1      -4.409  -1.609  -0.108  1.00  0.00    -0.549 OA
ENDBRANCH   1   2
BRANCH   1   5
ATOM      5  S   UNL     1      -1.904   0.660   0.705  1.00  0.00    -0.119 SA
BRANCH   5   6
ATOM      6  C   UNL     1      -0.155   0.702   0.241  1.00  0.00     0.021 A 
ATOM      7  C   UNL     1       0.720  -0.351   0.602  1.00  0.00     0.014 A 
ATOM      8  C   UNL     1       0.351   1.805  -0.482  1.00  0.00    -0.018 A 
ATOM      9  C   UNL     1       0.291  -1.474   1.340  1.00  0.00     0.013 A 
ATOM     10  C   UNL     1       2.076  -0.276   0.204  1.00  0.00     0.073 A 
ATOM     11  C   UNL     1       1.704   1.818  -0.850  1.00  0.00     0.116 A 
ATOM     12  C   UNL     1       1.191  -2.492   1.667  1.00  0.00     0.021 A 
ATOM     13  N   UNL     1       2.522   0.793  -0.504  1.00  0.00    -0.256 NA
ATOM     14  C   UNL     1       2.968  -1.302   0.536  1.00  0.00     0.049 A 
ATOM     15  C   UNL     1       2.526  -2.409   1.266  1.00  0.00     0.043 A 
ATOM     16  C   UNL     1      -0.531   2.963  -0.868  1.00  0.00     0.047 C 
ATOM     17  Cl  UNL     1       3.648  -3.692   1.680  1.00  0.00    -0.084 Cl
ENDBRANCH   5   6
ENDBRANCH   1   5
TORSDOF 3
