REMARK SMILES CCN=c1nc(Cl)[nH]c(-c2cn(-c3ccccc3)c3ccccc23)n1
REMARK SMILES IDX 8 1 6 2 7 3 5 4 4 5 25 6 9 7 10 9 11 10 24 11 12 12 23 13
REMARK SMILES IDX 19 14 22 15 20 16 21 17 13 18 14 19 18 20 15 21 17 22 16 23
REMARK SMILES IDX 3 24 2 25 1 26
REMARK H PARENT 8 8
ROOT
ATOM      1  N   UNL     1      -1.911  -0.730  -2.161  1.00  0.00    -0.314 N 
ATOM      2  C   UNL     1      -3.243  -0.946  -2.318  1.00  0.00     0.204 A 
ATOM      3  Cl  UNL     1      -3.866  -1.571  -3.833  1.00  0.00    -0.043 Cl
ATOM      4  N   UNL     1      -4.098  -0.693  -1.296  1.00  0.00    -0.182 NA
ATOM      5  C   UNL     1      -3.626  -0.226  -0.109  1.00  0.00     0.249 A 
ATOM      6  N   UNL     1      -2.296  -0.008   0.043  1.00  0.00    -0.193 NA
ATOM      7  C   UNL     1      -1.435  -0.242  -0.981  1.00  0.00     0.145 A 
ATOM      8  H   UNL     1      -1.261  -0.978  -2.938  1.00  0.00     0.171 HD
ENDROOT
BRANCH   7   9
ATOM      9  C   UNL     1       0.006  -0.008  -0.778  1.00  0.00     0.043 A 
ATOM     10  C   UNL     1       0.693  -0.196   0.416  1.00  0.00     0.104 A 
ATOM     11  C   UNL     1       0.946   0.459  -1.684  1.00  0.00     0.011 A 
ATOM     12  N   UNL     1       2.005   0.104   0.260  1.00  0.00    -0.316 N 
ATOM     13  C   UNL     1       0.813   0.917  -2.998  1.00  0.00     0.011 A 
ATOM     14  C   UNL     1       2.151   0.511  -1.021  1.00  0.00     0.054 A 
ATOM     15  C   UNL     1       1.960   1.407  -3.646  1.00  0.00     0.001 A 
ATOM     16  C   UNL     1       3.299   1.020  -1.639  1.00  0.00     0.027 A 
ATOM     17  C   UNL     1       3.196   1.457  -2.970  1.00  0.00     0.002 A 
BRANCH  12  18
ATOM     18  C   UNL     1       3.011   0.004   1.282  1.00  0.00     0.046 A 
ATOM     19  C   UNL     1       2.758   0.498   2.572  1.00  0.00     0.026 A 
ATOM     20  C   UNL     1       4.238  -0.629   1.018  1.00  0.00     0.026 A 
ATOM     21  C   UNL     1       3.728   0.386   3.574  1.00  0.00     0.002 A 
ATOM     22  C   UNL     1       5.205  -0.740   2.022  1.00  0.00     0.002 A 
ATOM     23  C   UNL     1       4.951  -0.230   3.298  1.00  0.00     0.000 A 
ENDBRANCH  12  18
ENDBRANCH   7   9
BRANCH   5  24
ATOM     24  N   UNL     1      -4.430   0.014   0.882  1.00  0.00    -0.250 NA
BRANCH  24  25
ATOM     25  C   UNL     1      -5.875  -0.186   0.829  1.00  0.00     0.143 C 
ATOM     26  C   UNL     1      -6.495   0.195   2.165  1.00  0.00     0.029 C 
ENDBRANCH  24  25
ENDBRANCH   5  24
TORSDOF 4
