REMARK SMILES N=c1[nH]nc(Nc2ccccc2)[nH]1
REMARK SMILES IDX 13 1 5 2 4 3 3 4 2 5 6 8 7 10 8 11 12 12 9 13 11 14 10 15
REMARK SMILES IDX 1 16
REMARK H PARENT 13 6 3 7 6 9 1 17
ROOT
ATOM      1  N   UNL     1       2.661  -0.163   0.672  1.00  0.00    -0.294 N 
ATOM      2  C   UNL     1       1.449  -0.055   0.093  1.00  0.00     0.225 A 
ATOM      3  N   UNL     1       1.507   0.559  -1.110  1.00  0.00    -0.135 NA
ATOM      4  N   UNL     1       2.780   0.867  -1.298  1.00  0.00    -0.244 N 
ATOM      5  C   UNL     1       3.463   0.430  -0.229  1.00  0.00     0.216 A 
ATOM      6  H   UNL     1       2.912  -0.604   1.585  1.00  0.00     0.173 HD
ATOM      7  H   UNL     1       3.160   1.354  -2.140  1.00  0.00     0.193 HD
ENDROOT
BRANCH   2   8
ATOM      8  N   UNL     1       0.253  -0.603   0.664  1.00  0.00    -0.324 N 
ATOM      9  H   UNL     1       0.363  -1.283   1.450  1.00  0.00     0.170 HD
BRANCH   8  10
ATOM     10  C   UNL     1      -1.067  -0.370   0.145  1.00  0.00     0.041 A 
ATOM     11  C   UNL     1      -2.037  -1.379   0.254  1.00  0.00     0.026 A 
ATOM     12  C   UNL     1      -1.428   0.870  -0.416  1.00  0.00     0.026 A 
ATOM     13  C   UNL     1      -3.334  -1.168  -0.224  1.00  0.00     0.002 A 
ATOM     14  C   UNL     1      -2.726   1.077  -0.892  1.00  0.00     0.002 A 
ATOM     15  C   UNL     1      -3.677   0.057  -0.801  1.00  0.00     0.000 A 
ENDBRANCH   8  10
ENDBRANCH   2   8
BRANCH   5  16
ATOM     16  N   UNL     1       4.743   0.560  -0.089  1.00  0.00    -0.268 NA
ATOM     17  H   UNL     1       5.234   0.202   0.760  1.00  0.00     0.191 HD
ENDBRANCH   5  16
TORSDOF 3
