REMARK SMILES CC(=O)Oc1c(C)c(OC(C)=O)c2c(c1C(C)=O)O[C@H]1CC(=O)[C@H](C(C)=O)C(=O)[C@@]21C
REMARK SMILES IDX 24 1 22 2 23 3 21 4 20 5 19 6 14 7 15 8 5 9 6 10 7 11 8 12
REMARK SMILES IDX 13 13 30 14 31 15 28 16 29 17 25 18 26 19 27 20 9 21 10 22
REMARK SMILES IDX 11 23 12 24 16 25 17 26 18 27 4 28 2 29 1 30 3 31
REMARK H PARENT
ROOT
ATOM      1  C   UNL     1       3.857  -0.528  -0.399  1.00  0.00     0.190 C 
ATOM      2  C   UNL     1       3.690  -1.916  -0.955  1.00  0.00     0.154 C 
ATOM      3  O   UNL     1       4.667  -2.622  -1.159  1.00  0.00    -0.298 OA
ATOM      4  C   UNL     1       2.334  -2.383  -1.374  1.00  0.00     0.123 C 
ATOM      5  C   UNL     1       1.332  -2.213  -0.226  1.00  0.00     0.198 C 
ATOM      6  O   UNL     1       0.024  -2.367  -0.764  1.00  0.00    -0.487 OA
ATOM      7  C   UNL     1      -0.689  -1.191  -0.688  1.00  0.00     0.142 A 
ATOM      8  C   UNL     1      -1.986  -0.982  -1.176  1.00  0.00     0.103 A 
ATOM      9  C   UNL     1      -2.590   0.274  -0.930  1.00  0.00     0.152 A 
ATOM     10  C   UNL     1      -1.879   1.286  -0.227  1.00  0.00     0.036 A 
ATOM     11  C   UNL     1      -2.473   2.665  -0.077  1.00  0.00     0.052 C 
ATOM     12  C   UNL     1      -0.592   1.005   0.297  1.00  0.00     0.145 A 
ATOM     13  C   UNL     1       0.011  -0.224  -0.016  1.00  0.00     0.055 A 
ATOM     14  C   UNL     1       1.341  -0.785   0.445  1.00  0.00     0.097 C 
ATOM     15  C   UNL     1       1.332  -0.921   1.980  1.00  0.00     0.029 C 
ATOM     16  C   UNL     1       2.531   0.077   0.011  1.00  0.00     0.165 C 
ATOM     17  O   UNL     1       2.452   1.295   0.059  1.00  0.00    -0.297 OA
ENDROOT
BRANCH   1  18
ATOM     18  C   UNL     1       4.819  -0.510   0.766  1.00  0.00     0.147 C 
ATOM     19  C   UNL     1       5.950   0.473   0.796  1.00  0.00     0.089 C 
ATOM     20  O   UNL     1       4.679  -1.293   1.694  1.00  0.00    -0.299 OA
ENDBRANCH   1  18
BRANCH  12  21
ATOM     21  O   UNL     1       0.086   1.923   1.108  1.00  0.00    -0.426 OA
BRANCH  21  22
ATOM     22  C   UNL     1      -0.419   2.394   2.325  1.00  0.00     0.308 C 
ATOM     23  C   UNL     1       0.322   3.456   3.061  1.00  0.00     0.139 C 
ATOM     24  O   UNL     1      -1.448   1.878   2.840  1.00  0.00    -0.252 OA
ENDBRANCH  21  22
ENDBRANCH  12  21
BRANCH   8  25
ATOM     25  C   UNL     1      -2.712  -2.053  -1.911  1.00  0.00     0.167 C 
ATOM     26  C   UNL     1      -1.988  -3.080  -2.728  1.00  0.00     0.094 C 
ATOM     27  O   UNL     1      -3.968  -2.127  -1.832  1.00  0.00    -0.294 OA
ENDBRANCH   8  25
BRANCH   9  28
ATOM     28  O   UNL     1      -3.879   0.522  -1.420  1.00  0.00    -0.425 OA
BRANCH  28  29
ATOM     29  C   UNL     1      -4.977   0.775  -0.590  1.00  0.00     0.308 C 
ATOM     30  C   UNL     1      -6.268   1.209  -1.195  1.00  0.00     0.139 C 
ATOM     31  O   UNL     1      -4.882   0.655   0.662  1.00  0.00    -0.252 OA
ENDBRANCH  28  29
ENDBRANCH   9  28
TORSDOF 6
