REMARK SMILES C=C(O)c1sc2c(c1OC(=O)c1ccc(Cl)cc1Cl)c(=O)n(-c1ccccc1)c(=S)n2-c1ccccc1
REMARK SMILES IDX 4 1 5 2 6 3 7 4 8 5 20 6 21 7 22 8 29 9 30 10 31 11 2 12
REMARK SMILES IDX 1 13 3 14 9 16 10 17 11 18 12 19 13 20 18 21 14 22 17 23
REMARK SMILES IDX 15 24 19 25 16 26 32 27 33 28 37 29 34 30 36 31 35 32 23 33
REMARK SMILES IDX 24 34 28 35 25 36 27 37 26 38
REMARK H PARENT 3 15
ROOT
ATOM      1  C   UNL     1       0.601  -2.626   1.163  1.00  0.00     0.114 A 
ATOM      2  S   UNL     1      -1.039  -2.565   1.568  1.00  0.00    -0.109 S 
ATOM      3  C   UNL     1      -1.309  -1.026   0.939  1.00  0.00     0.119 A 
ATOM      4  C   UNL     1      -0.135  -0.521   0.425  1.00  0.00     0.119 A 
ATOM      5  C   UNL     1       0.948  -1.424   0.527  1.00  0.00     0.168 A 
ATOM      6  C   UNL     1      -0.130   0.791  -0.050  1.00  0.00     0.271 A 
ATOM      7  O   UNL     1       0.945   1.319  -0.447  1.00  0.00    -0.268 OA
ATOM      8  N   UNL     1      -1.300   1.511  -0.055  1.00  0.00    -0.252 N 
ATOM      9  C   UNL     1      -2.473   0.959   0.433  1.00  0.00     0.193 A 
ATOM     10  S   UNL     1      -3.889   1.817   0.359  1.00  0.00    -0.039 S 
ATOM     11  N   UNL     1      -2.470  -0.318   0.954  1.00  0.00    -0.277 N 
ENDROOT
BRANCH   1  12
ATOM     12  C   UNL     1       1.481  -3.776   1.469  1.00  0.00     0.129 C 
ATOM     13  C   UNL     1       2.517  -4.100   0.694  1.00  0.00     0.060 C 
BRANCH  12  14
ATOM     14  O   UNL     1       1.218  -4.571   2.584  1.00  0.00    -0.507 OA
ATOM     15  H   UNL     1       0.457  -4.364   3.219  1.00  0.00     0.293 HD
ENDBRANCH  12  14
ENDBRANCH   1  12
BRANCH   5  16
ATOM     16  O   UNL     1       2.246  -1.149   0.087  1.00  0.00    -0.420 OA
BRANCH  16  17
ATOM     17  C   UNL     1       2.565  -0.911  -1.256  1.00  0.00     0.345 C 
ATOM     18  O   UNL     1       1.679  -1.053  -2.142  1.00  0.00    -0.246 OA
BRANCH  17  19
ATOM     19  C   UNL     1       3.943  -0.489  -1.616  1.00  0.00     0.079 A 
ATOM     20  C   UNL     1       4.793  -0.034  -0.589  1.00  0.00     0.019 A 
ATOM     21  C   UNL     1       4.441  -0.524  -2.944  1.00  0.00     0.057 A 
ATOM     22  C   UNL     1       6.094   0.386  -0.869  1.00  0.00     0.021 A 
ATOM     23  C   UNL     1       5.750  -0.099  -3.210  1.00  0.00     0.042 A 
ATOM     24  C   UNL     1       6.573   0.356  -2.179  1.00  0.00     0.042 A 
ATOM     25  Cl  UNL     1       3.502  -1.123  -4.310  1.00  0.00    -0.083 Cl
ATOM     26  Cl  UNL     1       8.209   0.884  -2.528  1.00  0.00    -0.084 Cl
ENDBRANCH  17  19
ENDBRANCH  16  17
ENDBRANCH   5  16
BRANCH  11  27
ATOM     27  C   UNL     1      -3.655  -0.917   1.510  1.00  0.00     0.049 A 
ATOM     28  C   UNL     1      -4.104  -0.540   2.786  1.00  0.00     0.027 A 
ATOM     29  C   UNL     1      -4.362  -1.889   0.786  1.00  0.00     0.027 A 
ATOM     30  C   UNL     1      -5.251  -1.128   3.328  1.00  0.00     0.002 A 
ATOM     31  C   UNL     1      -5.508  -2.475   1.331  1.00  0.00     0.002 A 
ATOM     32  C   UNL     1      -5.953  -2.094   2.600  1.00  0.00     0.000 A 
ENDBRANCH  11  27
BRANCH   8  33
ATOM     33  C   UNL     1      -1.274   2.857  -0.571  1.00  0.00     0.052 A 
ATOM     34  C   UNL     1      -1.303   3.952   0.307  1.00  0.00     0.027 A 
ATOM     35  C   UNL     1      -1.199   3.081  -1.954  1.00  0.00     0.027 A 
ATOM     36  C   UNL     1      -1.267   5.256  -0.195  1.00  0.00     0.002 A 
ATOM     37  C   UNL     1      -1.163   4.386  -2.454  1.00  0.00     0.002 A 
ATOM     38  C   UNL     1      -1.198   5.473  -1.575  1.00  0.00     0.000 A 
ENDBRANCH   8  33
TORSDOF 7
