REMARK SMILES c1cnc2c(c1)ccc1ncccc12
REMARK SMILES IDX 1 1 2 2 3 3 4 4 5 5 6 6 7 7 8 8 9 9 10 10 11 11 12 12 13 13
REMARK SMILES IDX 14 14
REMARK H PARENT
ROOT
ATOM      1  C   UNL     1      -3.409  -0.086   0.027  1.00  0.00     0.021 A 
ATOM      2  C   UNL     1      -2.783  -1.332   0.088  1.00  0.00     0.112 A 
ATOM      3  N   UNL     1      -1.426  -1.415   0.083  1.00  0.00    -0.256 NA
ATOM      4  C   UNL     1      -0.633  -0.307   0.020  1.00  0.00     0.080 A 
ATOM      5  C   UNL     1      -1.233   0.973  -0.043  1.00  0.00     0.001 A 
ATOM      6  C   UNL     1      -2.631   1.071  -0.039  1.00  0.00     0.012 A 
ATOM      7  C   UNL     1      -0.431   2.121  -0.108  1.00  0.00     0.012 A 
ATOM      8  C   UNL     1       0.961   2.008  -0.111  1.00  0.00     0.030 A 
ATOM      9  C   UNL     1       1.567   0.749  -0.049  1.00  0.00     0.072 A 
ATOM     10  N   UNL     1       2.924   0.653  -0.053  1.00  0.00    -0.256 NA
ATOM     11  C   UNL     1       3.558  -0.548   0.006  1.00  0.00     0.112 A 
ATOM     12  C   UNL     1       2.817  -1.729   0.072  1.00  0.00     0.021 A 
ATOM     13  C   UNL     1       1.423  -1.667   0.078  1.00  0.00     0.014 A 
ATOM     14  C   UNL     1       0.773  -0.421   0.017  1.00  0.00     0.026 A 
ENDROOT
TORSDOF 0
