REMARK SMILES CN(C)c1ccc(/C=C(\C#N)c2ccccc2)cc1
REMARK SMILES IDX 8 1 7 2 4 3 5 4 19 5 6 6 18 7 2 8 1 9 3 10 9 11 10 12 11 13
REMARK SMILES IDX 12 14 13 15 17 16 14 17 16 18 15 19
REMARK H PARENT
ROOT
ATOM      1  C   UNL     1       1.207  -0.435   0.262  1.00  0.00     0.028 C 
ENDROOT
BRANCH   1   2
ATOM      2  C   UNL     1      -0.266  -0.285   0.206  1.00  0.00    -0.024 A 
ATOM      3  C   UNL     1      -3.090  -0.071   0.179  1.00  0.00     0.036 A 
ATOM      4  C   UNL     1      -2.280   1.072   0.341  1.00  0.00     0.026 A 
ATOM      5  C   UNL     1      -2.457  -1.324   0.053  1.00  0.00     0.026 A 
ATOM      6  C   UNL     1      -0.887   0.964   0.364  1.00  0.00     0.010 A 
ATOM      7  C   UNL     1      -1.063  -1.428   0.076  1.00  0.00     0.010 A 
BRANCH   3   8
ATOM      8  N   UNL     1      -4.538   0.040   0.153  1.00  0.00    -0.378 N 
ATOM      9  C   UNL     1      -5.382  -1.128   0.436  1.00  0.00     0.143 C 
ATOM     10  C   UNL     1      -5.183   1.322  -0.158  1.00  0.00     0.143 C 
ENDBRANCH   3   8
ENDBRANCH   1   2
BRANCH   1  11
ATOM     11  C   UNL     1       2.087   0.347  -0.397  1.00  0.00     0.060 C 
BRANCH  11  12
ATOM     12  C   UNL     1       1.633   1.367  -1.318  1.00  0.00     0.100 C 
ATOM     13  N   UNL     1       1.272   2.183  -2.056  1.00  0.00    -0.192 NA
ENDBRANCH  11  12
BRANCH  11  14
ATOM     14  C   UNL     1       3.550   0.118  -0.258  1.00  0.00    -0.008 A 
ATOM     15  C   UNL     1       4.112  -0.233   0.986  1.00  0.00     0.009 A 
ATOM     16  C   UNL     1       4.405   0.270  -1.368  1.00  0.00     0.009 A 
ATOM     17  C   UNL     1       5.490  -0.438   1.111  1.00  0.00     0.001 A 
ATOM     18  C   UNL     1       5.782   0.063  -1.237  1.00  0.00     0.001 A 
ATOM     19  C   UNL     1       6.323  -0.291   0.000  1.00  0.00     0.000 A 
ENDBRANCH  11  14
ENDBRANCH   1  11
TORSDOF 5
