REMARK SMILES CSc1ccc(NC(=O)Nc2ccccc2C(N)=O)cc1
REMARK SMILES IDX 7 1 8 2 9 3 10 4 6 7 3 8 4 9 21 10 5 11 20 12 2 13 1 14
REMARK SMILES IDX 11 15 12 16 16 17 13 18 15 19 14 20 17 21 18 22 19 23
REMARK H PARENT 7 5 10 6 18 24 18 25
ROOT
ATOM      1  N   UNL     1       0.788   0.568  -0.891  1.00  0.00    -0.308 N 
ATOM      2  C   UNL     1      -0.384  -0.189  -0.552  1.00  0.00     0.323 C 
ATOM      3  O   UNL     1      -0.280  -1.382  -0.156  1.00  0.00    -0.248 OA
ATOM      4  N   UNL     1      -1.677   0.420  -0.677  1.00  0.00    -0.307 N 
ATOM      5  H   UNL     1       0.656   1.432  -1.463  1.00  0.00     0.171 HD
ATOM      6  H   UNL     1      -1.720   1.450  -0.845  1.00  0.00     0.171 HD
ENDROOT
BRANCH   1   7
ATOM      7  C   UNL     1       2.133   0.149  -0.600  1.00  0.00     0.042 A 
ATOM      8  C   UNL     1       4.787  -0.590  -0.042  1.00  0.00     0.007 A 
ATOM      9  C   UNL     1       4.487   0.121  -1.209  1.00  0.00     0.017 A 
ATOM     10  C   UNL     1       3.765  -0.924   0.852  1.00  0.00     0.017 A 
ATOM     11  C   UNL     1       3.168   0.497  -1.481  1.00  0.00     0.027 A 
ATOM     12  C   UNL     1       2.445  -0.550   0.581  1.00  0.00     0.027 A 
BRANCH   8  13
ATOM     13  S   UNL     1       6.479  -1.073   0.306  1.00  0.00    -0.130 SA
ATOM     14  C   UNL     1       6.859   0.457   1.215  1.00  0.00     0.091 C 
ENDBRANCH   8  13
ENDBRANCH   1   7
BRANCH   4  15
ATOM     15  C   UNL     1      -2.911  -0.304  -0.522  1.00  0.00     0.055 A 
ATOM     16  C   UNL     1      -3.076  -1.545  -1.163  1.00  0.00     0.027 A 
ATOM     17  C   UNL     1      -3.999   0.261   0.191  1.00  0.00     0.063 A 
ATOM     18  C   UNL     1      -4.290  -2.228  -1.088  1.00  0.00     0.002 A 
ATOM     19  C   UNL     1      -5.216  -0.442   0.253  1.00  0.00     0.016 A 
ATOM     20  C   UNL     1      -5.358  -1.678  -0.382  1.00  0.00     0.001 A 
BRANCH  17  21
ATOM     21  C   UNL     1      -3.869   1.546   0.918  1.00  0.00     0.250 C 
ATOM     22  N   UNL     1      -4.969   2.455   1.004  1.00  0.00    -0.366 N 
ATOM     23  O   UNL     1      -2.783   1.843   1.485  1.00  0.00    -0.269 OA
ATOM     24  H   UNL     1      -5.852   2.289   0.474  1.00  0.00     0.159 HD
ATOM     25  H   UNL     1      -4.878   3.336   1.558  1.00  0.00     0.159 HD
ENDBRANCH  17  21
ENDBRANCH   4  15
TORSDOF 4
