REMARK SMILES Nc1ccc(C(=O)Oc2ccc([N+](=O)[O-])cc2)c(O)c1
REMARK SMILES IDX 6 1 7 2 5 3 2 4 3 5 20 6 4 7 18 8 1 9 19 12 8 14 9 15 10 16
REMARK SMILES IDX 17 17 11 18 16 19 12 20 13 21 14 22 15 23
REMARK H PARENT 1 10 1 11 19 13
ROOT
ATOM      1  C   UNL     1       0.352  -0.631  -0.065  1.00  0.00     0.347 C 
ATOM      2  O   UNL     1      -0.060  -1.823  -0.058  1.00  0.00    -0.246 OA
ENDROOT
BRANCH   1   3
ATOM      3  C   UNL     1       1.802  -0.336   0.058  1.00  0.00     0.102 A 
ATOM      4  C   UNL     1       4.542   0.305   0.285  1.00  0.00     0.035 A 
ATOM      5  C   UNL     1       3.595   1.316   0.100  1.00  0.00     0.026 A 
ATOM      6  C   UNL     1       4.123  -1.028   0.359  1.00  0.00     0.072 A 
ATOM      7  C   UNL     1       2.239   1.001  -0.012  1.00  0.00     0.022 A 
ATOM      8  C   UNL     1       2.763  -1.357   0.248  1.00  0.00     0.132 A 
BRANCH   4   9
ATOM      9  N   UNL     1       5.930   0.631   0.400  1.00  0.00    -0.399 N 
ATOM     10  H   UNL     1       6.646  -0.118   0.538  1.00  0.00     0.156 HD
ATOM     11  H   UNL     1       6.253   1.623   0.346  1.00  0.00     0.156 HD
ENDBRANCH   4   9
BRANCH   8  12
ATOM     12  O   UNL     1       2.376  -2.695   0.329  1.00  0.00    -0.507 OA
ATOM     13  H   UNL     1       3.051  -3.438   0.465  1.00  0.00     0.293 HD
ENDBRANCH   8  12
ENDBRANCH   1   3
BRANCH   1  14
ATOM     14  O   UNL     1      -0.555   0.424  -0.247  1.00  0.00    -0.423 OA
BRANCH  14  15
ATOM     15  C   UNL     1      -1.946   0.338  -0.088  1.00  0.00     0.131 A 
ATOM     16  C   UNL     1      -2.546  -0.555   0.818  1.00  0.00     0.054 A 
ATOM     17  C   UNL     1      -2.756   1.205  -0.829  1.00  0.00     0.054 A 
ATOM     18  C   UNL     1      -3.937  -0.596   0.952  1.00  0.00     0.089 A 
ATOM     19  C   UNL     1      -4.147   1.165  -0.697  1.00  0.00     0.089 A 
ATOM     20  C   UNL     1      -4.753   0.261   0.192  1.00  0.00     0.269 A 
BRANCH  20  21
ATOM     21  N   UNL     1      -6.186   0.221   0.326  1.00  0.00     0.062 N 
ATOM     22  O   UNL     1      -6.730  -0.579   1.115  1.00  0.00    -0.258 OA
ATOM     23  O   UNL     1      -6.981   1.064  -0.416  1.00  0.00    -0.258 OA
ENDBRANCH  20  21
ENDBRANCH  14  15
ENDBRANCH   1  14
TORSDOF 6
