REMARK SMILES c1cncc([C@@H]2CCCC[NH2+]2)c1
REMARK SMILES IDX 6 1 11 2 10 3 7 4 8 5 9 6 5 9 4 10 12 11 3 12 1 13 2 14
REMARK H PARENT 11 7 11 8
ROOT
ATOM      1  C   UNL     1      -0.445  -0.560  -0.455  1.00  0.00     0.215 C 
ATOM      2  N   UNL     1      -0.343   0.035   0.894  1.00  0.00    -0.340 N 
ATOM      3  C   UNL     1      -1.673   0.352   1.440  1.00  0.00     0.261 C 
ATOM      4  C   UNL     1      -1.152   0.405  -1.429  1.00  0.00     0.070 C 
ATOM      5  C   UNL     1      -2.533   0.790  -0.889  1.00  0.00     0.012 C 
ATOM      6  C   UNL     1      -2.422   1.340   0.535  1.00  0.00     0.062 C 
ATOM      7  H   UNL     1       0.121  -0.649   1.537  1.00  0.00     0.346 HD
ATOM      8  H   UNL     1       0.232   0.910   0.872  1.00  0.00     0.346 HD
ENDROOT
BRANCH   1   9
ATOM      9  C   UNL     1       0.927  -0.949  -0.980  1.00  0.00     0.028 A 
ATOM     10  C   UNL     1       1.211  -2.287  -1.302  1.00  0.00     0.120 A 
ATOM     11  C   UNL     1       1.942   0.009  -1.157  1.00  0.00     0.013 A 
ATOM     12  N   UNL     1       2.438  -2.636  -1.772  1.00  0.00    -0.264 NA
ATOM     13  C   UNL     1       3.193  -0.377  -1.641  1.00  0.00     0.021 A 
ATOM     14  C   UNL     1       3.425  -1.718  -1.946  1.00  0.00     0.111 A 
ENDBRANCH   1   9
TORSDOF 1
