REMARK SMILES Clc1ccccc1-c1nc2ccccc2[nH]1
REMARK SMILES IDX 8 1 9 2 10 3 11 4 12 5 13 6 14 7 15 8 16 9 7 11 2 12 3 13
REMARK SMILES IDX 4 14 6 15 5 16 1 17
REMARK H PARENT 16 10
ROOT
ATOM      1  C   UNL     1      -0.173   0.009  -0.265  1.00  0.00     0.139 A 
ATOM      2  N   UNL     1       0.477   0.825  -1.140  1.00  0.00    -0.228 NA
ATOM      3  C   UNL     1       1.768   0.505  -0.945  1.00  0.00     0.089 A 
ATOM      4  C   UNL     1       2.885   1.043  -1.580  1.00  0.00     0.030 A 
ATOM      5  C   UNL     1       4.151   0.562  -1.194  1.00  0.00     0.002 A 
ATOM      6  C   UNL     1       4.265  -0.430  -0.192  1.00  0.00     0.002 A 
ATOM      7  C   UNL     1       3.114  -0.949   0.431  1.00  0.00     0.028 A 
ATOM      8  C   UNL     1       1.880  -0.453   0.017  1.00  0.00     0.066 A 
ATOM      9  N   UNL     1       0.661  -0.776   0.465  1.00  0.00    -0.338 N 
ATOM     10  H   UNL     1       0.423  -1.440   1.234  1.00  0.00     0.168 HD
ENDROOT
BRANCH   1  11
ATOM     11  C   UNL     1      -1.640   0.042  -0.086  1.00  0.00     0.036 A 
ATOM     12  C   UNL     1      -2.406  -1.134   0.088  1.00  0.00     0.052 A 
ATOM     13  C   UNL     1      -3.792  -1.042   0.272  1.00  0.00     0.021 A 
ATOM     14  C   UNL     1      -4.424   0.203   0.274  1.00  0.00     0.002 A 
ATOM     15  C   UNL     1      -2.294   1.287  -0.103  1.00  0.00     0.013 A 
ATOM     16  C   UNL     1      -3.677   1.366   0.081  1.00  0.00     0.001 A 
ATOM     17  Cl  UNL     1      -1.696  -2.743  -0.010  1.00  0.00    -0.084 Cl
ENDBRANCH   1  11
TORSDOF 1
