REMARK SMILES O=C(Nc1ccsn1)c1ccc(Cl)cc1Cl
REMARK SMILES IDX 9 1 10 2 11 3 12 4 13 5 14 6 15 7 16 8 2 9 3 10 1 11 4 13
REMARK SMILES IDX 5 14 8 15 6 16 7 17
REMARK H PARENT 3 12
ROOT
ATOM      1  C   UNL     1       1.132  -0.615  -0.181  1.00  0.00     0.058 A 
ATOM      2  C   UNL     1       1.683   0.375   0.654  1.00  0.00     0.017 A 
ATOM      3  C   UNL     1       3.066   0.551   0.734  1.00  0.00     0.021 A 
ATOM      4  C   UNL     1       3.920  -0.258  -0.017  1.00  0.00     0.042 A 
ATOM      5  Cl  UNL     1       5.657  -0.034   0.085  1.00  0.00    -0.084 Cl
ATOM      6  C   UNL     1       3.390  -1.243  -0.853  1.00  0.00     0.041 A 
ATOM      7  C   UNL     1       2.004  -1.429  -0.942  1.00  0.00     0.055 A 
ATOM      8  Cl  UNL     1       1.411  -2.652  -2.063  1.00  0.00    -0.083 Cl
ENDROOT
BRANCH   1   9
ATOM      9  C   UNL     1      -0.340  -0.786  -0.226  1.00  0.00     0.258 C 
ATOM     10  N   UNL     1      -1.204   0.363  -0.171  1.00  0.00    -0.306 N 
ATOM     11  O   UNL     1      -0.829  -1.945  -0.306  1.00  0.00    -0.269 OA
ATOM     12  H   UNL     1      -0.776   1.311  -0.268  1.00  0.00     0.171 HD
BRANCH  10  13
ATOM     13  C   UNL     1      -2.632   0.288  -0.026  1.00  0.00     0.146 A 
ATOM     14  C   UNL     1      -3.441   1.446  -0.054  1.00  0.00     0.060 A 
ATOM     15  N   UNL     1      -3.283  -0.890   0.161  1.00  0.00    -0.175 NA
ATOM     16  C   UNL     1      -4.794   1.186   0.112  1.00  0.00     0.089 A 
ATOM     17  S   UNL     1      -4.884  -0.469   0.285  1.00  0.00    -0.043 S 
ENDBRANCH  10  13
ENDBRANCH   1   9
TORSDOF 2
