REMARK SMILES Cn1c(C(=O)c2ccncc2)cc2ccccc21
REMARK SMILES IDX 1 1 2 2 3 3 12 4 13 5 14 6 15 7 16 8 17 9 18 10 4 11 5 12
REMARK SMILES IDX 6 13 7 14 11 15 8 16 10 17 9 18
REMARK H PARENT
ROOT
ATOM      1  C   UNL     1      -1.260  -2.379   1.072  1.00  0.00     0.150 C 
ATOM      2  N   UNL     1      -1.152  -1.034   0.503  1.00  0.00    -0.341 N 
ATOM      3  C   UNL     1      -0.044  -0.243   0.466  1.00  0.00     0.090 A 
ATOM      4  C   UNL     1      -0.340   0.985  -0.125  1.00  0.00     0.040 A 
ATOM      5  C   UNL     1      -1.678   0.924  -0.440  1.00  0.00     0.000 A 
ATOM      6  C   UNL     1      -2.507   1.880  -1.024  1.00  0.00     0.010 A 
ATOM      7  C   UNL     1      -3.862   1.553  -1.203  1.00  0.00     0.001 A 
ATOM      8  C   UNL     1      -4.354   0.296  -0.792  1.00  0.00     0.002 A 
ATOM      9  C   UNL     1      -3.494  -0.648  -0.201  1.00  0.00     0.027 A 
ATOM     10  C   UNL     1      -2.147  -0.302  -0.042  1.00  0.00     0.048 A 
ENDROOT
BRANCH   3  11
ATOM     11  C   UNL     1       1.271  -0.592   1.051  1.00  0.00     0.209 C 
ATOM     12  O   UNL     1       1.308  -1.314   2.084  1.00  0.00    -0.287 OA
BRANCH  11  13
ATOM     13  C   UNL     1       2.543  -0.087   0.480  1.00  0.00     0.027 A 
ATOM     14  C   UNL     1       2.668   0.178  -0.895  1.00  0.00     0.032 A 
ATOM     15  C   UNL     1       3.663   0.098   1.307  1.00  0.00     0.032 A 
ATOM     16  C   UNL     1       3.885   0.639  -1.403  1.00  0.00     0.111 A 
ATOM     17  C   UNL     1       4.861   0.561   0.758  1.00  0.00     0.111 A 
ATOM     18  N   UNL     1       4.946   0.821  -0.573  1.00  0.00    -0.265 NA
ENDBRANCH  11  13
ENDBRANCH   3  11
TORSDOF 2
