REMARK SMILES O=C1C=CC(=O)N1c1ccc(I)cc1Cl
REMARK SMILES IDX 8 1 9 2 10 3 11 4 12 5 13 6 14 7 15 8 7 9 2 10 3 11 4 12
REMARK SMILES IDX 5 13 1 14 6 15
REMARK H PARENT
ROOT
ATOM      1  C   UNL     1       0.370   0.033   0.174  1.00  0.00     0.071 A 
ATOM      2  C   UNL     1       1.062  -0.885  -0.634  1.00  0.00     0.029 A 
ATOM      3  C   UNL     1       2.458  -0.857  -0.699  1.00  0.00     0.017 A 
ATOM      4  C   UNL     1       3.175   0.084   0.043  1.00  0.00     0.015 A 
ATOM      5  I   UNL     1       5.281   0.123  -0.055  1.00  0.00    -0.044 I 
ATOM      6  C   UNL     1       2.496   0.996   0.857  1.00  0.00     0.037 A 
ATOM      7  C   UNL     1       1.098   0.975   0.927  1.00  0.00     0.066 A 
ATOM      8  Cl  UNL     1       0.288   2.100   2.010  1.00  0.00    -0.082 Cl
ENDROOT
BRANCH   1   9
ATOM      9  N   UNL     1      -1.064   0.005   0.223  1.00  0.00    -0.242 N 
ATOM     10  C   UNL     1      -1.942   1.005  -0.286  1.00  0.00     0.258 C 
ATOM     11  C   UNL     1      -3.285   0.467  -0.486  1.00  0.00     0.078 C 
ATOM     12  C   UNL     1      -3.258  -0.823  -0.165  1.00  0.00     0.078 C 
ATOM     13  C   UNL     1      -1.898  -1.148   0.255  1.00  0.00     0.258 C 
ATOM     14  O   UNL     1      -1.585   2.176  -0.578  1.00  0.00    -0.269 OA
ATOM     15  O   UNL     1      -1.504  -2.293   0.602  1.00  0.00    -0.269 OA
ENDBRANCH   1   9
TORSDOF 1
