REMARK SMILES O=C(Nc1cccc(Cl)c1)Nc1nccs1
REMARK SMILES IDX 4 1 5 2 6 3 7 4 8 5 9 6 10 7 3 8 2 9 11 10 1 11 12 14 13 15
REMARK SMILES IDX 16 16 14 17 15 18
REMARK H PARENT 3 12 11 13
ROOT
ATOM      1  C   UNL     1      -1.843  -0.113  -0.468  1.00  0.00     0.044 A 
ATOM      2  C   UNL     1      -2.118  -0.292   0.901  1.00  0.00     0.026 A 
ATOM      3  C   UNL     1      -3.412  -0.092   1.391  1.00  0.00     0.004 A 
ATOM      4  C   UNL     1      -4.443   0.274   0.522  1.00  0.00     0.020 A 
ATOM      5  C   UNL     1      -4.184   0.432  -0.842  1.00  0.00     0.043 A 
ATOM      6  Cl  UNL     1      -5.481   0.879  -1.935  1.00  0.00    -0.084 Cl
ATOM      7  C   UNL     1      -2.890   0.232  -1.336  1.00  0.00     0.046 A 
ENDROOT
BRANCH   1   8
ATOM      8  N   UNL     1      -0.527  -0.336  -1.004  1.00  0.00    -0.308 N 
ATOM      9  C   UNL     1       0.691  -0.039  -0.304  1.00  0.00     0.325 C 
ATOM     10  N   UNL     1       1.941  -0.502  -0.836  1.00  0.00    -0.283 N 
ATOM     11  O   UNL     1       0.664   0.655   0.749  1.00  0.00    -0.248 OA
ATOM     12  H   UNL     1      -0.449  -0.655  -1.996  1.00  0.00     0.171 HD
ATOM     13  H   UNL     1       1.927  -1.059  -1.719  1.00  0.00     0.174 HD
BRANCH  10  14
ATOM     14  C   UNL     1       3.214  -0.253  -0.225  1.00  0.00     0.190 A 
ATOM     15  N   UNL     1       3.385   0.441   0.922  1.00  0.00    -0.228 NA
ATOM     16  S   UNL     1       4.677  -0.795  -0.849  1.00  0.00    -0.105 S 
ATOM     17  C   UNL     1       4.697   0.519   1.269  1.00  0.00     0.125 A 
ATOM     18  C   UNL     1       5.577  -0.114   0.399  1.00  0.00     0.088 A 
ENDBRANCH  10  14
ENDBRANCH   1   8
TORSDOF 2
