REMARK SMILES Nc1nc(=Nc2ccccc2)[nH][nH]1
REMARK SMILES IDX 12 1 13 2 2 3 3 4 4 5 5 8 6 9 7 10 11 11 8 12 10 13 9 14
REMARK SMILES IDX 1 15
REMARK H PARENT 12 6 13 7 1 16 1 17
ROOT
ATOM      1  N   UNL     1       1.973  -2.017  -0.143  1.00  0.00    -0.265 N 
ATOM      2  N   UNL     1       3.115  -1.416   0.127  1.00  0.00    -0.267 N 
ATOM      3  C   UNL     1       2.842  -0.105   0.249  1.00  0.00     0.215 A 
ATOM      4  N   UNL     1       1.534   0.175   0.063  1.00  0.00    -0.176 NA
ATOM      5  C   UNL     1       1.030  -1.059  -0.172  1.00  0.00     0.245 A 
ATOM      6  H   UNL     1       1.852  -3.041  -0.305  1.00  0.00     0.191 HD
ATOM      7  H   UNL     1       4.042  -1.888   0.217  1.00  0.00     0.191 HD
ENDROOT
BRANCH   5   8
ATOM      8  N   UNL     1      -0.217  -1.307  -0.451  1.00  0.00    -0.212 NA
BRANCH   8   9
ATOM      9  C   UNL     1      -1.296  -0.358  -0.471  1.00  0.00     0.067 A 
ATOM     10  C   UNL     1      -2.348  -0.557  -1.377  1.00  0.00     0.028 A 
ATOM     11  C   UNL     1      -1.369   0.716   0.439  1.00  0.00     0.028 A 
ATOM     12  C   UNL     1      -3.431   0.326  -1.411  1.00  0.00     0.002 A 
ATOM     13  C   UNL     1      -2.455   1.596   0.402  1.00  0.00     0.002 A 
ATOM     14  C   UNL     1      -3.483   1.405  -0.525  1.00  0.00     0.000 A 
ENDBRANCH   8   9
ENDBRANCH   5   8
BRANCH   3  15
ATOM     15  N   UNL     1       3.826   0.885   0.535  1.00  0.00    -0.368 N 
ATOM     16  H   UNL     1       4.825   0.614   0.667  1.00  0.00     0.159 HD
ATOM     17  H   UNL     1       3.553   1.890   0.616  1.00  0.00     0.159 HD
ENDBRANCH   3  15
TORSDOF 3
