REMARK SMILES O[C@@H](c1cc(C(F)(F)F)nc2c(Cl)cc(Cl)cc12)[C@H]1CCCC[NH2+]1
REMARK SMILES IDX 3 1 4 2 18 3 5 4 17 5 11 6 10 7 15 8 12 9 14 10 16 11 13 12
REMARK SMILES IDX 2 13 19 14 24 15 20 16 23 17 21 18 22 19 1 22 6 24 7 25 8 26
REMARK SMILES IDX 9 27
REMARK H PARENT 24 20 24 21 1 23
ROOT
ATOM      1  C   UNL     1      -1.160  -0.071  -0.652  1.00  0.00    -0.002 A 
ATOM      2  C   UNL     1      -1.706  -1.366  -0.557  1.00  0.00     0.040 A 
ATOM      3  C   UNL     1      -1.776   0.980   0.088  1.00  0.00     0.009 A 
ATOM      4  C   UNL     1      -2.845  -1.604   0.218  1.00  0.00     0.145 A 
ATOM      5  C   UNL     1      -1.288   2.307   0.095  1.00  0.00     0.031 A 
ATOM      6  C   UNL     1      -2.932   0.685   0.860  1.00  0.00     0.090 A 
ATOM      7  N   UNL     1      -3.421  -0.581   0.897  1.00  0.00    -0.242 NA
ATOM      8  C   UNL     1      -1.933   3.301   0.836  1.00  0.00     0.043 A 
ATOM      9  C   UNL     1      -3.572   1.694   1.598  1.00  0.00     0.068 A 
ATOM     10  C   UNL     1      -3.071   2.996   1.582  1.00  0.00     0.043 A 
ATOM     11  Cl  UNL     1      -1.307   4.941   0.831  1.00  0.00    -0.084 Cl
ATOM     12  Cl  UNL     1      -5.005   1.343   2.556  1.00  0.00    -0.082 Cl
ENDROOT
BRANCH   1  13
ATOM     13  C   UNL     1       0.102   0.148  -1.490  1.00  0.00     0.203 C 
BRANCH  13  14
ATOM     14  C   UNL     1       1.399   0.189  -0.620  1.00  0.00     0.216 C 
ATOM     15  N   UNL     1       2.589   0.406  -1.470  1.00  0.00    -0.341 N 
ATOM     16  C   UNL     1       1.589  -1.066   0.269  1.00  0.00     0.068 C 
ATOM     17  C   UNL     1       3.806   0.586  -0.660  1.00  0.00     0.260 C 
ATOM     18  C   UNL     1       2.862  -0.936   1.110  1.00  0.00     0.012 C 
ATOM     19  C   UNL     1       4.071  -0.643   0.219  1.00  0.00     0.062 C 
ATOM     20  H   UNL     1       2.452   1.272  -2.044  1.00  0.00     0.346 HD
ATOM     21  H   UNL     1       2.728  -0.402  -2.121  1.00  0.00     0.346 HD
ENDBRANCH  13  14
BRANCH  13  22
ATOM     22  O   UNL     1       0.185  -0.765  -2.562  1.00  0.00    -0.382 OA
ATOM     23  H   UNL     1       0.580  -1.612  -2.236  1.00  0.00     0.211 HD
ENDBRANCH  13  22
ENDBRANCH   1  13
BRANCH   4  24
ATOM     24  C   UNL     1      -3.422  -2.986   0.313  1.00  0.00     0.433 C 
ATOM     25  F   UNL     1      -4.560  -2.985   1.102  1.00  0.00    -0.165 F 
ATOM     26  F   UNL     1      -2.490  -3.840   0.874  1.00  0.00    -0.165 F 
ATOM     27  F   UNL     1      -3.755  -3.441  -0.950  1.00  0.00    -0.165 F 
ENDBRANCH   4  24
TORSDOF 4
