REMARK SMILES S=c1[nH]c2ccccc2c2ccccc12
REMARK SMILES IDX 1 1 2 2 3 3 4 4 5 5 6 6 7 7 8 8 9 9 10 10 11 11 12 12 13 13
REMARK SMILES IDX 14 14 15 15
REMARK H PARENT 3 16
ROOT
ATOM      1  S   UNL     1      -1.812   3.240   0.921  1.00  0.00    -0.060 S 
ATOM      2  C   UNL     1      -0.906   1.915   0.546  1.00  0.00     0.111 A 
ATOM      3  N   UNL     1       0.447   2.032   0.593  1.00  0.00    -0.346 N 
ATOM      4  C   UNL     1       1.282   0.998   0.301  1.00  0.00     0.047 A 
ATOM      5  C   UNL     1       2.672   1.195   0.371  1.00  0.00     0.027 A 
ATOM      6  C   UNL     1       3.550   0.154   0.079  1.00  0.00     0.002 A 
ATOM      7  C   UNL     1       3.053  -1.092  -0.287  1.00  0.00     0.001 A 
ATOM      8  C   UNL     1       1.675  -1.308  -0.363  1.00  0.00     0.011 A 
ATOM      9  C   UNL     1       0.758  -0.267  -0.070  1.00  0.00     0.006 A 
ATOM     10  C   UNL     1      -0.657  -0.429  -0.130  1.00  0.00    -0.006 A 
ATOM     11  C   UNL     1      -1.268  -1.656  -0.492  1.00  0.00     0.009 A 
ATOM     12  C   UNL     1      -2.655  -1.781  -0.541  1.00  0.00     0.001 A 
ATOM     13  C   UNL     1      -3.469  -0.698  -0.235  1.00  0.00     0.001 A 
ATOM     14  C   UNL     1      -2.902   0.521   0.123  1.00  0.00     0.012 A 
ATOM     15  C   UNL     1      -1.498   0.680   0.183  1.00  0.00     0.017 A 
ATOM     16  H   UNL     1       0.861   2.955   0.864  1.00  0.00     0.167 HD
ENDROOT
TORSDOF 0
