REMARK SMILES O=C(Nc1ccc(Cl)c(Cl)c1)c1ccc(Cl)c(Cl)c1
REMARK SMILES IDX 1 1 2 2 3 3 12 5 13 6 19 7 14 8 17 9 15 10 18 11 16 12 4 13
REMARK SMILES IDX 5 14 11 15 6 16 9 17 7 18 10 19 8 20
REMARK H PARENT 3 4
ROOT
ATOM      1  O   UNL     1       0.006  -1.573   0.980  1.00  0.00    -0.269 OA
ATOM      2  C   UNL     1      -0.422  -0.700   0.175  1.00  0.00     0.255 C 
ATOM      3  N   UNL     1       0.508   0.042  -0.632  1.00  0.00    -0.322 N 
ATOM      4  H   UNL     1       0.184   0.382  -1.566  1.00  0.00     0.170 HD
ENDROOT
BRANCH   2   5
ATOM      5  C   UNL     1      -1.884  -0.490   0.038  1.00  0.00     0.041 A 
ATOM      6  C   UNL     1      -2.394   0.691  -0.531  1.00  0.00     0.015 A 
ATOM      7  C   UNL     1      -2.787  -1.466   0.501  1.00  0.00     0.036 A 
ATOM      8  C   UNL     1      -3.773   0.882  -0.649  1.00  0.00     0.023 A 
ATOM      9  C   UNL     1      -4.168  -1.275   0.382  1.00  0.00     0.060 A 
ATOM     10  C   UNL     1      -4.664  -0.096  -0.198  1.00  0.00     0.059 A 
ATOM     11  Cl  UNL     1      -5.254  -2.528   0.967  1.00  0.00    -0.083 Cl
ATOM     12  Cl  UNL     1      -6.392   0.183  -0.364  1.00  0.00    -0.083 Cl
ENDBRANCH   2   5
BRANCH   3  13
ATOM     13  C   UNL     1       1.897   0.208  -0.301  1.00  0.00     0.043 A 
ATOM     14  C   UNL     1       2.329   0.273   1.036  1.00  0.00     0.028 A 
ATOM     15  C   UNL     1       2.837   0.367  -1.330  1.00  0.00     0.048 A 
ATOM     16  C   UNL     1       3.682   0.459   1.332  1.00  0.00     0.024 A 
ATOM     17  C   UNL     1       4.194   0.552  -1.036  1.00  0.00     0.061 A 
ATOM     18  C   UNL     1       4.619   0.594   0.302  1.00  0.00     0.059 A 
ATOM     19  Cl  UNL     1       5.336   0.731  -2.361  1.00  0.00    -0.083 Cl
ATOM     20  Cl  UNL     1       6.312   0.827   0.715  1.00  0.00    -0.083 Cl
ENDBRANCH   3  13
TORSDOF 2
