REMARK SMILES c1cncc(-c2nc3ccccc3s2)c1
REMARK SMILES IDX 6 1 7 2 8 3 9 4 10 5 11 6 12 7 13 8 14 9 5 10 1 11 2 12
REMARK SMILES IDX 15 13 3 14 4 15
REMARK H PARENT
ROOT
ATOM      1  C   UNL     1       0.438  -0.059  -0.050  1.00  0.00     0.126 A 
ATOM      2  N   UNL     1      -0.492   0.903   0.183  1.00  0.00    -0.236 NA
ATOM      3  C   UNL     1      -1.740   0.376   0.266  1.00  0.00     0.082 A 
ATOM      4  C   UNL     1      -2.898   1.121   0.500  1.00  0.00     0.030 A 
ATOM      5  C   UNL     1      -4.131   0.450   0.563  1.00  0.00     0.002 A 
ATOM      6  C   UNL     1      -4.194  -0.948   0.393  1.00  0.00     0.002 A 
ATOM      7  C   UNL     1      -3.023  -1.687   0.158  1.00  0.00     0.021 A 
ATOM      8  C   UNL     1      -1.815  -0.997   0.101  1.00  0.00     0.055 A 
ATOM      9  S   UNL     1      -0.272  -1.599  -0.161  1.00  0.00    -0.114 S 
ENDROOT
BRANCH   1  10
ATOM     10  C   UNL     1       1.884   0.230  -0.187  1.00  0.00     0.029 A 
ATOM     11  C   UNL     1       4.171  -0.498  -0.554  1.00  0.00     0.021 A 
ATOM     12  C   UNL     1       4.595   0.826  -0.437  1.00  0.00     0.111 A 
ATOM     13  C   UNL     1       2.813  -0.796  -0.429  1.00  0.00     0.014 A 
ATOM     14  N   UNL     1       3.689   1.811  -0.203  1.00  0.00    -0.264 NA
ATOM     15  C   UNL     1       2.361   1.548  -0.077  1.00  0.00     0.122 A 
ENDBRANCH   1  10
TORSDOF 1
