REMARK SMILES O=C1NC(=O)C(=Cc2ccc3ccccc3c2)C(=O)N1
REMARK SMILES IDX 20 1 2 2 1 3 3 4 4 5 5 6 6 7 18 8 19 9 7 12 8 13 9 14 17 15
REMARK SMILES IDX 10 16 16 17 11 18 15 19 12 20 14 21 13 22
REMARK H PARENT 20 10 3 11
ROOT
ATOM      1  N   UNL     1      -3.752   0.711  -1.377  1.00  0.00    -0.273 N 
ATOM      2  C   UNL     1      -4.970   0.149  -0.886  1.00  0.00     0.328 C 
ATOM      3  O   UNL     1      -6.073   0.525  -1.363  1.00  0.00    -0.248 OA
ATOM      4  N   UNL     1      -4.938  -0.848   0.137  1.00  0.00    -0.273 N 
ATOM      5  C   UNL     1      -3.703  -1.256   0.732  1.00  0.00     0.264 C 
ATOM      6  O   UNL     1      -3.720  -2.140   1.632  1.00  0.00    -0.269 OA
ATOM      7  C   UNL     1      -2.424  -0.632   0.306  1.00  0.00     0.106 C 
ATOM      8  C   UNL     1      -2.484   0.290  -0.863  1.00  0.00     0.264 C 
ATOM      9  O   UNL     1      -1.436   0.669  -1.452  1.00  0.00    -0.269 OA
ATOM     10  H   UNL     1      -3.785   1.406  -2.157  1.00  0.00     0.175 HD
ATOM     11  H   UNL     1      -5.833  -1.276   0.464  1.00  0.00     0.175 HD
ENDROOT
BRANCH   7  12
ATOM     12  C   UNL     1      -1.279  -0.940   0.959  1.00  0.00     0.027 C 
BRANCH  12  13
ATOM     13  C   UNL     1       0.026  -0.281   0.755  1.00  0.00    -0.024 A 
ATOM     14  C   UNL     1       0.160   1.110   0.894  1.00  0.00     0.009 A 
ATOM     15  C   UNL     1       1.165  -1.066   0.523  1.00  0.00     0.016 A 
ATOM     16  C   UNL     1       1.409   1.719   0.751  1.00  0.00     0.009 A 
ATOM     17  C   UNL     1       2.424  -0.464   0.377  1.00  0.00    -0.018 A 
ATOM     18  C   UNL     1       2.546   0.943   0.488  1.00  0.00    -0.018 A 
ATOM     19  C   UNL     1       3.564  -1.242   0.123  1.00  0.00     0.009 A 
ATOM     20  C   UNL     1       3.806   1.544   0.342  1.00  0.00     0.009 A 
ATOM     21  C   UNL     1       4.813  -0.630  -0.021  1.00  0.00     0.001 A 
ATOM     22  C   UNL     1       4.933   0.758   0.088  1.00  0.00     0.001 A 
ENDBRANCH  12  13
ENDBRANCH   7  12
TORSDOF 2
