REMARK SMILES S=c1nc[nH]c2sc(=Nc3ccccc3)[nH]c12
REMARK SMILES IDX 16 1 8 2 7 3 6 4 5 5 4 6 3 7 2 8 1 9 17 10 9 13 10 14 11 15
REMARK SMILES IDX 15 16 12 17 14 18 13 19
REMARK H PARENT 16 11 5 12
ROOT
ATOM      1  N   UNL     1       1.415  -1.521  -0.069  1.00  0.00    -0.327 N 
ATOM      2  C   UNL     1       0.349  -0.723   0.187  1.00  0.00     0.189 A 
ATOM      3  S   UNL     1       0.817   0.877   0.540  1.00  0.00    -0.079 S 
ATOM      4  C   UNL     1       2.441   0.504   0.330  1.00  0.00     0.124 A 
ATOM      5  N   UNL     1       3.503   1.337   0.452  1.00  0.00    -0.336 N 
ATOM      6  C   UNL     1       4.755   0.837   0.246  1.00  0.00     0.199 A 
ATOM      7  N   UNL     1       4.930  -0.481  -0.076  1.00  0.00    -0.225 NA
ATOM      8  C   UNL     1       3.872  -1.333  -0.201  1.00  0.00     0.154 A 
ATOM      9  S   UNL     1       4.139  -2.901  -0.587  1.00  0.00    -0.056 S 
ATOM     10  C   UNL     1       2.583  -0.830   0.007  1.00  0.00     0.112 A 
ATOM     11  H   UNL     1       1.337  -2.539  -0.292  1.00  0.00     0.169 HD
ATOM     12  H   UNL     1       3.367   2.342   0.700  1.00  0.00     0.168 HD
ENDROOT
BRANCH   2  13
ATOM     13  N   UNL     1      -0.868  -1.185   0.212  1.00  0.00    -0.221 NA
BRANCH  13  14
ATOM     14  C   UNL     1      -2.066  -0.424   0.429  1.00  0.00     0.066 A 
ATOM     15  C   UNL     1      -3.066  -0.955   1.255  1.00  0.00     0.028 A 
ATOM     16  C   UNL     1      -2.302   0.790  -0.243  1.00  0.00     0.028 A 
ATOM     17  C   UNL     1      -4.262  -0.259   1.455  1.00  0.00     0.002 A 
ATOM     18  C   UNL     1      -3.499   1.484  -0.042  1.00  0.00     0.002 A 
ATOM     19  C   UNL     1      -4.476   0.963   0.811  1.00  0.00     0.000 A 
ENDBRANCH  13  14
ENDBRANCH   2  13
TORSDOF 2
