REMARK SMILES N=c1cc[nH]n1-c1ccccc1
REMARK SMILES IDX 5 1 4 2 3 3 2 4 6 5 7 7 8 8 12 9 9 10 11 11 10 12 1 13
REMARK H PARENT 5 6 1 14
ROOT
ATOM      1  N   UNL     1      -1.708   1.225   0.045  1.00  0.00    -0.300 N 
ATOM      2  C   UNL     1      -3.009   0.880  -0.044  1.00  0.00     0.106 A 
ATOM      3  C   UNL     1      -3.107  -0.491  -0.200  1.00  0.00     0.068 A 
ATOM      4  C   UNL     1      -1.794  -0.921  -0.194  1.00  0.00     0.145 A 
ATOM      5  N   UNL     1      -0.964   0.132  -0.040  1.00  0.00    -0.239 N 
ATOM      6  H   UNL     1      -1.343   2.194   0.178  1.00  0.00     0.188 HD
ENDROOT
BRANCH   5   7
ATOM      7  C   UNL     1       0.476   0.127   0.010  1.00  0.00     0.065 A 
ATOM      8  C   UNL     1       1.206   1.161  -0.602  1.00  0.00     0.028 A 
ATOM      9  C   UNL     1       1.171  -0.892   0.687  1.00  0.00     0.028 A 
ATOM     10  C   UNL     1       2.603   1.167  -0.550  1.00  0.00     0.002 A 
ATOM     11  C   UNL     1       2.569  -0.881   0.737  1.00  0.00     0.002 A 
ATOM     12  C   UNL     1       3.284   0.147   0.117  1.00  0.00     0.000 A 
ENDBRANCH   5   7
BRANCH   4  13
ATOM     13  N   UNL     1      -1.405  -2.146  -0.362  1.00  0.00    -0.283 NA
ATOM     14  H   UNL     1      -2.091  -2.922  -0.498  1.00  0.00     0.189 HD
ENDBRANCH   4  13
TORSDOF 2
