REMARK SMILES COc1ccc2c(n1)Sc1nc3ccccc3nc1N2
REMARK SMILES IDX 3 1 4 2 5 3 6 4 7 5 8 6 9 7 10 8 11 9 12 10 13 11 14 12
REMARK SMILES IDX 15 13 16 14 17 15 18 16 19 17 20 18 2 20 1 21
REMARK H PARENT 20 19
ROOT
ATOM      1  C   UNL     1       3.957  -0.132  -0.384  1.00  0.00     0.214 A 
ATOM      2  C   UNL     1       3.740  -1.512  -0.331  1.00  0.00     0.070 A 
ATOM      3  C   UNL     1       2.471  -2.020  -0.616  1.00  0.00     0.034 A 
ATOM      4  C   UNL     1       1.429  -1.149  -0.955  1.00  0.00     0.073 A 
ATOM      5  C   UNL     1       1.696   0.229  -1.032  1.00  0.00     0.130 A 
ATOM      6  N   UNL     1       2.938   0.700  -0.741  1.00  0.00    -0.204 NA
ATOM      7  S   UNL     1       0.449   1.355  -1.660  1.00  0.00    -0.044 SA
ATOM      8  C   UNL     1      -0.904   0.599  -0.758  1.00  0.00     0.146 A 
ATOM      9  N   UNL     1      -1.889   1.378  -0.240  1.00  0.00    -0.235 NA
ATOM     10  C   UNL     1      -2.993   0.826   0.329  1.00  0.00     0.090 A 
ATOM     11  C   UNL     1      -4.004   1.636   0.859  1.00  0.00     0.030 A 
ATOM     12  C   UNL     1      -5.140   1.050   1.426  1.00  0.00     0.002 A 
ATOM     13  C   UNL     1      -5.270  -0.344   1.463  1.00  0.00     0.002 A 
ATOM     14  C   UNL     1      -4.263  -1.159   0.934  1.00  0.00     0.031 A 
ATOM     15  C   UNL     1      -3.125  -0.578   0.365  1.00  0.00     0.091 A 
ATOM     16  N   UNL     1      -2.129  -1.354  -0.139  1.00  0.00    -0.226 NA
ATOM     17  C   UNL     1      -1.017  -0.800  -0.695  1.00  0.00     0.164 A 
ATOM     18  N   UNL     1       0.084  -1.637  -1.074  1.00  0.00    -0.336 N 
ATOM     19  H   UNL     1      -0.078  -2.668  -1.137  1.00  0.00     0.168 HD
ENDROOT
BRANCH   1  20
ATOM     20  O   UNL     1       5.223   0.377  -0.080  1.00  0.00    -0.481 OA
ATOM     21  C   UNL     1       5.522   1.767  -0.115  1.00  0.00     0.280 C 
ENDBRANCH   1  20
TORSDOF 1
