REMARK SMILES O=C1c2ccccc2-c2nc3ccccc3n21
REMARK SMILES IDX 1 1 2 2 3 3 4 4 5 5 6 6 7 7 8 8 9 9 10 10 11 11 12 12 13 13
REMARK SMILES IDX 14 14 15 15 16 16 17 17
REMARK H PARENT
ROOT
ATOM      1  O   UNL     1      -0.758  -2.728  -0.381  1.00  0.00    -0.268 OA
ATOM      2  C   UNL     1      -0.806  -1.476  -0.255  1.00  0.00     0.264 C 
ATOM      3  C   UNL     1      -2.000  -0.627  -0.114  1.00  0.00     0.051 A 
ATOM      4  C   UNL     1      -3.355  -0.944  -0.080  1.00  0.00     0.014 A 
ATOM      5  C   UNL     1      -4.275   0.111   0.068  1.00  0.00     0.001 A 
ATOM      6  C   UNL     1      -3.829   1.448   0.179  1.00  0.00     0.001 A 
ATOM      7  C   UNL     1      -2.455   1.751   0.143  1.00  0.00     0.013 A 
ATOM      8  C   UNL     1      -1.564   0.694  -0.005  1.00  0.00     0.031 A 
ATOM      9  C   UNL     1      -0.109   0.642  -0.080  1.00  0.00     0.149 A 
ATOM     10  N   UNL     1       0.868   1.581  -0.034  1.00  0.00    -0.228 NA
ATOM     11  C   UNL     1       1.974   0.795  -0.165  1.00  0.00     0.090 A 
ATOM     12  C   UNL     1       3.306   1.203  -0.189  1.00  0.00     0.030 A 
ATOM     13  C   UNL     1       4.295   0.209  -0.335  1.00  0.00     0.002 A 
ATOM     14  C   UNL     1       3.936  -1.156  -0.452  1.00  0.00     0.002 A 
ATOM     15  C   UNL     1       2.584  -1.546  -0.425  1.00  0.00     0.029 A 
ATOM     16  C   UNL     1       1.639  -0.537  -0.280  1.00  0.00     0.077 A 
ATOM     17  N   UNL     1       0.313  -0.607  -0.223  1.00  0.00    -0.258 N 
ENDROOT
TORSDOF 0
