REMARK SMILES CC(=O)N1C=Cc2c(c(C)c3c([nH]c4ccccc43)c2C)C1
REMARK SMILES IDX 4 1 5 2 6 3 7 4 8 5 9 6 10 7 11 8 12 9 13 10 14 11 15 12
REMARK SMILES IDX 16 13 17 14 18 15 19 16 20 17 21 18 22 19 2 21 1 22 3 23
REMARK H PARENT 13 20
ROOT
ATOM      1  N   UNL     1       3.403  -0.880   0.403  1.00  0.00    -0.315 N 
ATOM      2  C   UNL     1       3.007  -2.218   0.065  1.00  0.00     0.090 C 
ATOM      3  C   UNL     1       1.734  -2.526  -0.154  1.00  0.00     0.027 C 
ATOM      4  C   UNL     1       0.664  -1.508  -0.050  1.00  0.00    -0.014 A 
ATOM      5  C   UNL     1       1.026  -0.136   0.079  1.00  0.00    -0.017 A 
ATOM      6  C   UNL     1       0.018   0.876   0.075  1.00  0.00    -0.035 A 
ATOM      7  C   UNL     1       0.356   2.349   0.081  1.00  0.00     0.045 C 
ATOM      8  C   UNL     1      -1.325   0.460   0.034  1.00  0.00     0.011 A 
ATOM      9  C   UNL     1      -1.673  -0.879  -0.067  1.00  0.00     0.050 A 
ATOM     10  N   UNL     1      -3.017  -1.032  -0.135  1.00  0.00    -0.354 N 
ATOM     11  C   UNL     1      -3.525   0.209  -0.056  1.00  0.00     0.046 A 
ATOM     12  C   UNL     1      -4.877   0.552  -0.067  1.00  0.00     0.027 A 
ATOM     13  C   UNL     1      -5.216   1.909   0.051  1.00  0.00     0.002 A 
ATOM     14  C   UNL     1      -4.210   2.886   0.184  1.00  0.00     0.001 A 
ATOM     15  C   UNL     1      -2.852   2.518   0.193  1.00  0.00     0.011 A 
ATOM     16  C   UNL     1      -2.532   1.160   0.057  1.00  0.00     0.008 A 
ATOM     17  C   UNL     1      -0.705  -1.896  -0.093  1.00  0.00    -0.019 A 
ATOM     18  C   UNL     1      -1.106  -3.351  -0.175  1.00  0.00     0.047 C 
ATOM     19  C   UNL     1       2.493   0.253   0.167  1.00  0.00     0.161 C 
ATOM     20  H   UNL     1      -3.572  -1.910  -0.234  1.00  0.00     0.167 HD
ENDROOT
BRANCH   1  21
ATOM     21  C   UNL     1       4.767  -0.641   0.818  1.00  0.00     0.223 C 
ATOM     22  C   UNL     1       5.334   0.746   0.898  1.00  0.00     0.115 C 
ATOM     23  O   UNL     1       5.504  -1.609   1.151  1.00  0.00    -0.275 OA
ENDBRANCH   1  21
TORSDOF 1
