REMARK SMILES O=C(Nc1cccc2c1N(C(=O)c1ccco1)CCC2)c1ccco1
REMARK SMILES IDX 4 1 5 2 6 3 7 4 8 5 9 6 10 7 18 8 19 9 20 10 3 11 2 12 1 13
REMARK SMILES IDX 21 15 22 16 25 17 23 18 24 19 11 20 12 21 13 22 14 23 17 24
REMARK SMILES IDX 15 25 16 26
REMARK H PARENT 3 14
ROOT
ATOM      1  C   UNL     1      -0.257  -0.110  -1.546  1.00  0.00     0.065 A 
ATOM      2  C   UNL     1      -0.696   0.026  -2.872  1.00  0.00     0.028 A 
ATOM      3  C   UNL     1      -1.752  -0.747  -3.353  1.00  0.00     0.003 A 
ATOM      4  C   UNL     1      -2.372  -1.679  -2.521  1.00  0.00     0.006 A 
ATOM      5  C   UNL     1      -1.959  -1.818  -1.189  1.00  0.00    -0.022 A 
ATOM      6  C   UNL     1      -0.947  -0.987  -0.667  1.00  0.00     0.071 A 
ATOM      7  N   UNL     1      -0.650  -1.064   0.753  1.00  0.00    -0.303 N 
ATOM      8  C   UNL     1      -0.932  -2.293   1.518  1.00  0.00     0.126 C 
ATOM      9  C   UNL     1      -1.547  -3.407   0.658  1.00  0.00     0.027 C 
ATOM     10  C   UNL     1      -2.600  -2.839  -0.294  1.00  0.00     0.039 C 
ENDROOT
BRANCH   1  11
ATOM     11  N   UNL     1       0.898   0.633  -1.132  1.00  0.00    -0.317 N 
ATOM     12  C   UNL     1       2.041   0.011  -0.528  1.00  0.00     0.291 C 
ATOM     13  O   UNL     1       2.148  -1.246  -0.514  1.00  0.00    -0.265 OA
ATOM     14  H   UNL     1       0.974   1.633  -1.427  1.00  0.00     0.170 HD
BRANCH  12  15
ATOM     15  C   UNL     1       3.089   0.838   0.086  1.00  0.00     0.191 A 
ATOM     16  C   UNL     1       4.263   0.377   0.649  1.00  0.00     0.056 A 
ATOM     17  O   UNL     1       3.026   2.146   0.186  1.00  0.00    -0.459 OA
ATOM     18  C   UNL     1       4.921   1.499   1.104  1.00  0.00     0.043 A 
ATOM     19  C   UNL     1       4.111   2.572   0.792  1.00  0.00     0.196 A 
ENDBRANCH  12  15
ENDBRANCH   1  11
BRANCH   7  20
ATOM     20  C   UNL     1      -0.283   0.102   1.517  1.00  0.00     0.294 C 
ATOM     21  O   UNL     1       0.545  -0.011   2.461  1.00  0.00    -0.265 OA
BRANCH  20  22
ATOM     22  C   UNL     1      -0.879   1.420   1.239  1.00  0.00     0.191 A 
ATOM     23  C   UNL     1      -0.444   2.627   1.751  1.00  0.00     0.056 A 
ATOM     24  O   UNL     1      -1.913   1.614   0.454  1.00  0.00    -0.459 OA
ATOM     25  C   UNL     1      -1.284   3.581   1.217  1.00  0.00     0.043 A 
ATOM     26  C   UNL     1      -2.179   2.899   0.419  1.00  0.00     0.196 A 
ENDBRANCH  20  22
ENDBRANCH   7  20
TORSDOF 4
