REMARK SMILES N#Cc1n[nH]n(-c2ccc(Cl)cc2)c1=N
REMARK SMILES IDX 5 1 4 2 3 3 14 4 6 5 7 7 8 8 13 9 9 10 12 11 10 12 11 13
REMARK SMILES IDX 2 14 1 15 15 16
REMARK H PARENT 5 6 15 17
ROOT
ATOM      1  N   UNL     1       1.399   1.021  -1.336  1.00  0.00    -0.211 N 
ATOM      2  N   UNL     1       2.694   1.267  -1.174  1.00  0.00    -0.144 NA
ATOM      3  C   UNL     1       3.035   0.733   0.016  1.00  0.00     0.206 A 
ATOM      4  C   UNL     1       1.909   0.158   0.558  1.00  0.00     0.184 A 
ATOM      5  N   UNL     1       0.892   0.359  -0.304  1.00  0.00    -0.220 N 
ATOM      6  H   UNL     1       0.851   1.330  -2.170  1.00  0.00     0.213 HD
ENDROOT
BRANCH   5   7
ATOM      7  C   UNL     1      -0.487  -0.026  -0.187  1.00  0.00     0.067 A 
ATOM      8  C   UNL     1      -1.204   0.224   0.995  1.00  0.00     0.030 A 
ATOM      9  C   UNL     1      -1.148  -0.609  -1.280  1.00  0.00     0.030 A 
ATOM     10  C   UNL     1      -2.553  -0.131   1.091  1.00  0.00     0.023 A 
ATOM     11  C   UNL     1      -2.497  -0.965  -1.181  1.00  0.00     0.023 A 
ATOM     12  C   UNL     1      -3.200  -0.729   0.004  1.00  0.00     0.041 A 
ATOM     13  Cl  UNL     1      -4.892  -1.173   0.126  1.00  0.00    -0.084 Cl
ENDBRANCH   5   7
BRANCH   3  14
ATOM     14  C   UNL     1       4.363   0.745   0.567  1.00  0.00     0.126 C 
ATOM     15  N   UNL     1       5.432   0.754   1.010  1.00  0.00    -0.190 NA
ENDBRANCH   3  14
BRANCH   4  16
ATOM     16  N   UNL     1       1.855  -0.526   1.659  1.00  0.00    -0.280 NA
ATOM     17  H   UNL     1       0.981  -0.987   1.994  1.00  0.00     0.190 HD
ENDBRANCH   4  16
TORSDOF 3
