REMARK SMILES CC(C)(C)c1ccc(N2CSC(=S)N(c3ccc(C(C)(C)C)cc3)C2)cc1
REMARK SMILES IDX 9 1 10 2 11 3 12 4 13 5 14 6 25 7 8 8 5 9 6 10 27 11 7 12
REMARK SMILES IDX 26 13 2 14 1 15 3 16 4 17 15 18 16 19 24 20 17 21 23 22
REMARK SMILES IDX 18 23 19 24 20 25 21 26 22 27
REMARK H PARENT
ROOT
ATOM      1  N   UNL     1       1.200   2.176   0.431  1.00  0.00    -0.344 N 
ATOM      2  C   UNL     1       1.255   3.585   0.029  1.00  0.00     0.196 C 
ATOM      3  S   UNL     1       0.317   3.781  -1.509  1.00  0.00    -0.075 SA
ATOM      4  C   UNL     1      -1.180   3.196  -0.723  1.00  0.00     0.144 C 
ATOM      5  S   UNL     1      -2.440   4.231  -0.565  1.00  0.00    -0.052 S 
ATOM      6  N   UNL     1      -1.177   1.935  -0.027  1.00  0.00    -0.309 N 
ATOM      7  C   UNL     1      -0.081   1.632   0.908  1.00  0.00     0.245 C 
ENDROOT
BRANCH   1   8
ATOM      8  C   UNL     1       2.375   1.342   0.351  1.00  0.00     0.039 A 
ATOM      9  C   UNL     1       4.699  -0.288   0.201  1.00  0.00    -0.042 A 
ATOM     10  C   UNL     1       4.366   0.611  -0.837  1.00  0.00     0.006 A 
ATOM     11  C   UNL     1       3.837  -0.343   1.321  1.00  0.00     0.006 A 
ATOM     12  C   UNL     1       3.221   1.406  -0.765  1.00  0.00     0.026 A 
ATOM     13  C   UNL     1       2.696   0.460   1.392  1.00  0.00     0.026 A 
BRANCH   9  14
ATOM     14  C   UNL     1       5.986  -1.133   0.093  1.00  0.00    -0.013 C 
ATOM     15  C   UNL     1       7.210  -0.193   0.076  1.00  0.00     0.016 C 
ATOM     16  C   UNL     1       5.959  -1.963  -1.211  1.00  0.00     0.016 C 
ATOM     17  C   UNL     1       6.161  -2.122   1.271  1.00  0.00     0.016 C 
ENDBRANCH   9  14
ENDBRANCH   1   8
BRANCH   6  18
ATOM     18  C   UNL     1      -2.356   1.098  -0.059  1.00  0.00     0.044 A 
ATOM     19  C   UNL     1      -3.056   0.915  -1.259  1.00  0.00     0.026 A 
ATOM     20  C   UNL     1      -2.835   0.477   1.105  1.00  0.00     0.026 A 
ATOM     21  C   UNL     1      -4.214   0.135  -1.296  1.00  0.00     0.006 A 
ATOM     22  C   UNL     1      -3.992  -0.306   1.070  1.00  0.00     0.006 A 
ATOM     23  C   UNL     1      -4.697  -0.517  -0.138  1.00  0.00    -0.042 A 
BRANCH  23  24
ATOM     24  C   UNL     1      -6.026  -1.304  -0.172  1.00  0.00    -0.013 C 
ATOM     25  C   UNL     1      -6.113  -2.351   0.967  1.00  0.00     0.016 C 
ATOM     26  C   UNL     1      -6.190  -2.072  -1.510  1.00  0.00     0.016 C 
ATOM     27  C   UNL     1      -7.189  -0.305  -0.017  1.00  0.00     0.016 C 
ENDBRANCH  23  24
ENDBRANCH   6  18
TORSDOF 4
