REMARK SMILES O=C(c1ccccc1)c1ccc(-c2ccc(O)cc2)cc1
REMARK SMILES IDX 9 1 10 2 11 3 12 4 20 5 21 6 2 7 1 8 3 9 4 10 8 11 5 12 7 13
REMARK SMILES IDX 6 14 13 15 14 16 19 17 15 18 18 19 16 20 17 21
REMARK H PARENT 17 22
ROOT
ATOM      1  C   UNL     1       1.250   0.137   0.936  1.00  0.00     0.023 A 
ATOM      2  C   UNL     1       0.788  -0.645  -0.137  1.00  0.00     0.013 A 
ATOM      3  C   UNL     1      -0.579  -0.748  -0.404  1.00  0.00     0.009 A 
ATOM      4  C   UNL     1      -1.517  -0.079   0.403  1.00  0.00    -0.018 A 
ATOM      5  C   UNL     1      -1.055   0.690   1.485  1.00  0.00     0.009 A 
ATOM      6  C   UNL     1       0.313   0.791   1.753  1.00  0.00     0.013 A 
ENDROOT
BRANCH   1   7
ATOM      7  C   UNL     1       2.698   0.238   1.240  1.00  0.00     0.193 C 
ATOM      8  O   UNL     1       3.060   0.351   2.444  1.00  0.00    -0.289 OA
BRANCH   7   9
ATOM      9  C   UNL     1       3.736   0.212   0.181  1.00  0.00     0.022 A 
ATOM     10  C   UNL     1       3.490   0.768  -1.089  1.00  0.00     0.012 A 
ATOM     11  C   UNL     1       5.003  -0.333   0.452  1.00  0.00     0.012 A 
ATOM     12  C   UNL     1       4.484   0.753  -2.072  1.00  0.00     0.001 A 
ATOM     13  C   UNL     1       5.994  -0.346  -0.534  1.00  0.00     0.001 A 
ATOM     14  C   UNL     1       5.734   0.193  -1.796  1.00  0.00     0.000 A 
ENDBRANCH   7   9
ENDBRANCH   1   7
BRANCH   4  15
ATOM     15  C   UNL     1      -2.971  -0.186   0.119  1.00  0.00    -0.018 A 
ATOM     16  C   UNL     1      -3.807   0.940   0.231  1.00  0.00     0.012 A 
ATOM     17  C   UNL     1      -3.536  -1.416  -0.267  1.00  0.00     0.012 A 
ATOM     18  C   UNL     1      -5.175   0.838  -0.037  1.00  0.00     0.047 A 
ATOM     19  C   UNL     1      -4.905  -1.515  -0.533  1.00  0.00     0.047 A 
ATOM     20  C   UNL     1      -5.728  -0.391  -0.420  1.00  0.00     0.115 A 
BRANCH  20  21
ATOM     21  O   UNL     1      -7.090  -0.505  -0.689  1.00  0.00    -0.508 OA
ATOM     22  H   UNL     1      -7.712   0.292  -0.616  1.00  0.00     0.293 HD
ENDBRANCH  20  21
ENDBRANCH   4  15
TORSDOF 4
