REMARK SMILES Cn1ncc2c(Nc3ccccc3Cl)nc(=Nc3ccccc3Cl)[nH]c21
REMARK SMILES IDX 25 1 16 2 15 3 6 4 5 5 4 6 3 7 2 8 1 9 26 10 17 12 18 13
REMARK SMILES IDX 19 14 23 15 20 16 22 17 21 18 24 19 7 20 8 22 9 23 13 24
REMARK SMILES IDX 10 25 12 26 11 27 14 28
REMARK H PARENT 25 11 7 21
ROOT
ATOM      1  N   UNL     1      -1.161   2.594  -0.035  1.00  0.00    -0.308 N 
ATOM      2  C   UNL     1      -1.162   1.236  -0.220  1.00  0.00     0.230 A 
ATOM      3  N   UNL     1      -0.056   0.499   0.129  1.00  0.00    -0.194 NA
ATOM      4  C   UNL     1       1.069   1.078   0.648  1.00  0.00     0.147 A 
ATOM      5  C   UNL     1       1.050   2.454   0.829  1.00  0.00     0.080 A 
ATOM      6  C   UNL     1       1.956   3.377   1.313  1.00  0.00     0.149 A 
ATOM      7  N   UNL     1       1.384   4.607   1.250  1.00  0.00    -0.179 NA
ATOM      8  N   UNL     1       0.162   4.472   0.744  1.00  0.00    -0.252 N 
ATOM      9  C   UNL     1      -0.763   5.576   0.523  1.00  0.00     0.176 C 
ATOM     10  C   UNL     1      -0.048   3.171   0.485  1.00  0.00     0.141 A 
ATOM     11  H   UNL     1      -1.997   3.171  -0.283  1.00  0.00     0.171 HD
ENDROOT
BRANCH   2  12
ATOM     12  N   UNL     1      -2.234   0.655  -0.678  1.00  0.00    -0.212 NA
BRANCH  12  13
ATOM     13  C   UNL     1      -2.390  -0.748  -0.958  1.00  0.00     0.086 A 
ATOM     14  C   UNL     1      -1.372  -1.488  -1.588  1.00  0.00     0.030 A 
ATOM     15  C   UNL     1      -3.611  -1.379  -0.659  1.00  0.00     0.066 A 
ATOM     16  C   UNL     1      -1.550  -2.848  -1.860  1.00  0.00     0.002 A 
ATOM     17  C   UNL     1      -3.784  -2.741  -0.937  1.00  0.00     0.023 A 
ATOM     18  C   UNL     1      -2.753  -3.474  -1.529  1.00  0.00     0.002 A 
ATOM     19  Cl  UNL     1      -4.926  -0.484   0.088  1.00  0.00    -0.082 Cl
ENDBRANCH  12  13
ENDBRANCH   2  12
BRANCH   4  20
ATOM     20  N   UNL     1       2.204   0.282   1.016  1.00  0.00    -0.338 N 
ATOM     21  H   UNL     1       2.897   0.669   1.696  1.00  0.00     0.168 HD
BRANCH  20  22
ATOM     22  C   UNL     1       2.287  -1.108   0.678  1.00  0.00     0.058 A 
ATOM     23  C   UNL     1       2.326  -2.064   1.702  1.00  0.00     0.027 A 
ATOM     24  C   UNL     1       2.331  -1.529  -0.667  1.00  0.00     0.064 A 
ATOM     25  C   UNL     1       2.366  -3.426   1.394  1.00  0.00     0.002 A 
ATOM     26  C   UNL     1       2.368  -2.896  -0.968  1.00  0.00     0.023 A 
ATOM     27  C   UNL     1       2.379  -3.842   0.060  1.00  0.00     0.002 A 
ATOM     28  Cl  UNL     1       2.408  -0.367  -1.987  1.00  0.00    -0.082 Cl
ENDBRANCH  20  22
ENDBRANCH   4  20
TORSDOF 4
