REMARK SMILES C=C(O)[C@@H]1C(=O)C[C@H]2Oc3c(C(C)=O)c(OC(C)=O)c(C)c(OC(C)=O)c3[C@]2(C)C1=O
REMARK SMILES IDX 4 1 5 2 6 3 7 4 8 5 9 6 10 7 11 8 15 9 20 10 21 11 22 12
REMARK SMILES IDX 27 13 28 14 29 15 30 16 31 17 2 18 1 19 3 20 23 22 24 23
REMARK SMILES IDX 25 24 26 25 12 26 13 27 14 28 16 29 17 30 18 31 19 32
REMARK H PARENT 3 21
ROOT
ATOM      1  C   UNL     1       4.046  -0.828   0.043  1.00  0.00     0.189 C 
ATOM      2  C   UNL     1       4.302  -0.180  -1.333  1.00  0.00     0.154 C 
ATOM      3  O   UNL     1       5.407  -0.306  -1.838  1.00  0.00    -0.298 OA
ATOM      4  C   UNL     1       3.243   0.601  -2.106  1.00  0.00     0.123 C 
ATOM      5  C   UNL     1       2.016   0.780  -1.223  1.00  0.00     0.198 C 
ATOM      6  O   UNL     1       0.854   1.357  -1.796  1.00  0.00    -0.487 OA
ATOM      7  C   UNL     1      -0.221   0.922  -1.028  1.00  0.00     0.142 A 
ATOM      8  C   UNL     1      -1.522   1.431  -1.054  1.00  0.00     0.103 A 
ATOM      9  C   UNL     1      -2.475   0.852  -0.174  1.00  0.00     0.152 A 
ATOM     10  C   UNL     1      -2.111  -0.248   0.659  1.00  0.00     0.036 A 
ATOM     11  C   UNL     1      -3.150  -0.920   1.524  1.00  0.00     0.052 C 
ATOM     12  C   UNL     1      -0.795  -0.775   0.594  1.00  0.00     0.145 A 
ATOM     13  C   UNL     1       0.149  -0.115  -0.196  1.00  0.00     0.055 A 
ATOM     14  C   UNL     1       1.536  -0.542  -0.598  1.00  0.00     0.097 C 
ATOM     15  C   UNL     1       1.404  -1.706  -1.612  1.00  0.00     0.029 C 
ATOM     16  C   UNL     1       2.570  -0.886   0.442  1.00  0.00     0.165 C 
ATOM     17  O   UNL     1       2.243  -1.280   1.551  1.00  0.00    -0.297 OA
ENDROOT
BRANCH   1  18
ATOM     18  C   UNL     1       4.853  -0.126   1.116  1.00  0.00     0.103 C 
ATOM     19  C   UNL     1       5.498  -0.827   2.048  1.00  0.00     0.055 C 
BRANCH  18  20
ATOM     20  O   UNL     1       4.911   1.266   1.172  1.00  0.00    -0.512 OA
ATOM     21  H   UNL     1       4.441   1.852   0.494  1.00  0.00     0.293 HD
ENDBRANCH  18  20
ENDBRANCH   1  18
BRANCH  12  22
ATOM     22  O   UNL     1      -0.421  -1.931   1.288  1.00  0.00    -0.426 OA
BRANCH  22  23
ATOM     23  C   UNL     1      -0.964  -3.193   1.021  1.00  0.00     0.308 C 
ATOM     24  C   UNL     1      -0.560  -4.355   1.862  1.00  0.00     0.139 C 
ATOM     25  O   UNL     1      -1.734  -3.370   0.039  1.00  0.00    -0.252 OA
ENDBRANCH  22  23
ENDBRANCH  12  22
BRANCH   8  26
ATOM     26  C   UNL     1      -1.853   2.523  -2.004  1.00  0.00     0.167 C 
ATOM     27  C   UNL     1      -2.799   3.630  -1.654  1.00  0.00     0.094 C 
ATOM     28  O   UNL     1      -1.322   2.528  -3.147  1.00  0.00    -0.294 OA
ENDBRANCH   8  26
BRANCH   9  29
ATOM     29  O   UNL     1      -3.792   1.325  -0.173  1.00  0.00    -0.425 OA
BRANCH  29  30
ATOM     30  C   UNL     1      -4.312   2.124   0.851  1.00  0.00     0.308 C 
ATOM     31  C   UNL     1      -5.749   2.519   0.819  1.00  0.00     0.139 C 
ATOM     32  O   UNL     1      -3.584   2.496   1.812  1.00  0.00    -0.252 OA
ENDBRANCH  29  30
ENDBRANCH   9  29
TORSDOF 7
