REMARK SMILES NC(=O)C(=CN=c1[nH]c(-c2ccc(Cl)c(Cl)c2)cs1)C(N)=O
REMARK SMILES IDX 6 1 7 2 8 3 9 4 18 5 19 6 10 8 11 9 17 10 12 11 15 12 13 13
REMARK SMILES IDX 16 14 14 15 5 16 4 17 2 18 1 19 3 20 20 23 21 24 22 25
REMARK H PARENT 8 7 1 21 1 22 21 26 21 27
ROOT
ATOM      1  N   UNL     1      -1.644   0.020  -0.347  1.00  0.00    -0.228 NA
ENDROOT
BRANCH   1   2
ATOM      2  C   UNL     1      -0.511   0.495   0.079  1.00  0.00     0.187 A 
ATOM      3  N   UNL     1       0.645  -0.193  -0.018  1.00  0.00    -0.330 N 
ATOM      4  C   UNL     1       1.708   0.498   0.487  1.00  0.00     0.058 A 
ATOM      5  C   UNL     1       1.384   1.760   0.993  1.00  0.00     0.095 A 
ATOM      6  S   UNL     1      -0.272   2.000   0.801  1.00  0.00    -0.105 S 
ATOM      7  H   UNL     1       0.709  -1.139  -0.455  1.00  0.00     0.169 HD
BRANCH   4   8
ATOM      8  C   UNL     1       3.086  -0.055   0.497  1.00  0.00     0.000 A 
ATOM      9  C   UNL     1       3.297  -1.442   0.592  1.00  0.00     0.012 A 
ATOM     10  C   UNL     1       4.202   0.798   0.413  1.00  0.00     0.032 A 
ATOM     11  C   UNL     1       4.593  -1.963   0.602  1.00  0.00     0.023 A 
ATOM     12  C   UNL     1       5.502   0.277   0.422  1.00  0.00     0.060 A 
ATOM     13  C   UNL     1       5.698  -1.111   0.517  1.00  0.00     0.059 A 
ATOM     14  Cl  UNL     1       6.864   1.383   0.308  1.00  0.00    -0.083 Cl
ATOM     15  Cl  UNL     1       7.314  -1.805   0.532  1.00  0.00    -0.083 Cl
ENDBRANCH   4   8
ENDBRANCH   1   2
BRANCH   1  16
ATOM     16  C   UNL     1      -2.904   0.702  -0.273  1.00  0.00     0.134 C 
BRANCH  16  17
ATOM     17  C   UNL     1      -4.032   0.139  -0.742  1.00  0.00     0.122 C 
BRANCH  17  18
ATOM     18  C   UNL     1      -4.047  -1.257  -1.244  1.00  0.00     0.255 C 
ATOM     19  N   UNL     1      -3.344  -2.300  -0.565  1.00  0.00    -0.365 N 
ATOM     20  O   UNL     1      -4.725  -1.539  -2.269  1.00  0.00    -0.269 OA
ATOM     21  H   UNL     1      -2.905  -2.138   0.368  1.00  0.00     0.159 HD
ATOM     22  H   UNL     1      -3.332  -3.267  -0.960  1.00  0.00     0.159 HD
ENDBRANCH  17  18
BRANCH  17  23
ATOM     23  C   UNL     1      -5.301   0.908  -0.766  1.00  0.00     0.255 C 
ATOM     24  N   UNL     1      -5.314   2.335  -0.864  1.00  0.00    -0.365 N 
ATOM     25  O   UNL     1      -6.399   0.291  -0.717  1.00  0.00    -0.269 OA
ATOM     26  H   UNL     1      -6.221   2.852  -0.822  1.00  0.00     0.159 HD
ATOM     27  H   UNL     1      -4.447   2.879  -1.067  1.00  0.00     0.159 HD
ENDBRANCH  17  23
ENDBRANCH  16  17
ENDBRANCH   1  16
TORSDOF 6
