REMARK SMILES CCCOc1ccc(-c2nc(-c3ccc([N+](=O)[O-])cc3)cs2)cc1
REMARK SMILES IDX 5 1 6 2 7 3 8 4 23 5 24 6 4 7 3 8 2 9 1 10 9 11 10 12 22 13
REMARK SMILES IDX 11 14 21 15 12 16 13 17 20 18 14 19 19 20 15 21 16 22 17 23
REMARK SMILES IDX 18 24
REMARK H PARENT
ROOT
ATOM      1  C   UNL     1      -3.217   0.059  -0.380  1.00  0.00     0.119 A 
ATOM      2  C   UNL     1      -3.011  -0.145   0.997  1.00  0.00     0.047 A 
ATOM      3  C   UNL     1      -1.714  -0.224   1.512  1.00  0.00     0.015 A 
ATOM      4  C   UNL     1      -0.599  -0.101   0.664  1.00  0.00     0.011 A 
ATOM      5  C   UNL     1      -0.811   0.102  -0.710  1.00  0.00     0.015 A 
ATOM      6  C   UNL     1      -2.109   0.181  -1.224  1.00  0.00     0.047 A 
ENDROOT
BRANCH   1   7
ATOM      7  O   UNL     1      -4.498   0.145  -0.946  1.00  0.00    -0.494 OA
BRANCH   7   8
ATOM      8  C   UNL     1      -5.713   0.039  -0.209  1.00  0.00     0.229 C 
BRANCH   8   9
ATOM      9  C   UNL     1      -6.897   0.183  -1.162  1.00  0.00     0.038 C 
ATOM     10  C   UNL     1      -8.225   0.076  -0.417  1.00  0.00     0.007 C 
ENDBRANCH   8   9
ENDBRANCH   7   8
ENDBRANCH   1   7
BRANCH   4  11
ATOM     11  C   UNL     1       0.779  -0.183   1.200  1.00  0.00     0.124 A 
ATOM     12  N   UNL     1       1.885  -0.073   0.431  1.00  0.00    -0.236 NA
ATOM     13  S   UNL     1       1.200  -0.416   2.813  1.00  0.00    -0.122 S 
ATOM     14  C   UNL     1       3.041  -0.181   1.145  1.00  0.00     0.082 A 
ATOM     15  C   UNL     1       2.853  -0.378   2.517  1.00  0.00     0.096 A 
BRANCH  14  16
ATOM     16  C   UNL     1       4.370  -0.081   0.485  1.00  0.00     0.001 A 
ATOM     17  C   UNL     1       4.458   0.381  -0.841  1.00  0.00     0.017 A 
ATOM     18  C   UNL     1       5.555  -0.449   1.150  1.00  0.00     0.017 A 
ATOM     19  C   UNL     1       5.696   0.482  -1.481  1.00  0.00     0.086 A 
ATOM     20  C   UNL     1       6.793  -0.348   0.508  1.00  0.00     0.086 A 
ATOM     21  C   UNL     1       6.878   0.119  -0.813  1.00  0.00     0.269 A 
BRANCH  21  22
ATOM     22  N   UNL     1       8.155   0.222  -1.469  1.00  0.00     0.062 N 
ATOM     23  O   UNL     1       8.236   0.635  -2.645  1.00  0.00    -0.258 OA
ATOM     24  O   UNL     1       9.310  -0.135  -0.811  1.00  0.00    -0.258 OA
ENDBRANCH  21  22
ENDBRANCH  14  16
ENDBRANCH   4  11
TORSDOF 6
