REMARK SMILES S=c1[nH]cnc2c1ncn2C1CCCC1
REMARK SMILES IDX 3 1 4 2 5 3 6 4 7 5 8 6 9 7 10 8 2 9 1 10 11 12 12 13 15 14
REMARK SMILES IDX 13 15 14 16
REMARK H PARENT 3 11
ROOT
ATOM      1  N   UNL     1       3.276   1.178  -1.211  1.00  0.00    -0.335 N 
ATOM      2  C   UNL     1       1.978   1.525  -1.498  1.00  0.00     0.200 A 
ATOM      3  N   UNL     1       0.936   0.864  -0.911  1.00  0.00    -0.219 NA
ATOM      4  C   UNL     1       1.224  -0.138  -0.045  1.00  0.00     0.164 A 
ATOM      5  C   UNL     1       2.491  -0.498   0.256  1.00  0.00     0.142 A 
ATOM      6  N   UNL     1       2.495  -1.510   1.145  1.00  0.00    -0.232 NA
ATOM      7  C   UNL     1       1.168  -1.731   1.356  1.00  0.00     0.202 A 
ATOM      8  N   UNL     1       0.362  -0.907   0.637  1.00  0.00    -0.312 N 
ATOM      9  C   UNL     1       3.561   0.166  -0.334  1.00  0.00     0.134 A 
ATOM     10  S   UNL     1       5.112  -0.240   0.007  1.00  0.00    -0.058 S 
ATOM     11  H   UNL     1       4.051   1.703  -1.675  1.00  0.00     0.168 HD
ENDROOT
BRANCH   8  12
ATOM     12  C   UNL     1      -1.107  -0.875   0.654  1.00  0.00     0.090 C 
ATOM     13  C   UNL     1      -1.634   0.450   1.214  1.00  0.00     0.025 C 
ATOM     14  C   UNL     1      -1.699  -1.032  -0.754  1.00  0.00     0.025 C 
ATOM     15  C   UNL     1      -2.793   0.847   0.317  1.00  0.00     0.002 C 
ATOM     16  C   UNL     1      -2.478   0.244  -1.040  1.00  0.00     0.002 C 
ENDBRANCH   8  12
TORSDOF 1
