REMARK SMILES CCCCn1cnc2c(=S)nc(N)[nH]c21
REMARK SMILES IDX 4 1 3 2 2 3 1 4 5 5 6 6 15 7 7 8 14 9 8 10 12 11 9 12 11 13
REMARK SMILES IDX 10 15 13 16
REMARK H PARENT 14 14 13 17 13 18
ROOT
ATOM      1  C   UNL     1      -1.110  -0.007   0.708  1.00  0.00     0.125 C 
ENDROOT
BRANCH   1   2
ATOM      2  C   UNL     1      -1.653   0.079  -0.724  1.00  0.00     0.022 C 
BRANCH   2   3
ATOM      3  C   UNL     1      -2.805   1.085  -0.860  1.00  0.00    -0.002 C 
ATOM      4  C   UNL     1      -4.089   0.607  -0.183  1.00  0.00     0.004 C 
ENDBRANCH   2   3
ENDBRANCH   1   2
BRANCH   1   5
ATOM      5  N   UNL     1       0.064  -0.877   0.748  1.00  0.00    -0.317 N 
ATOM      6  C   UNL     1       0.091  -2.207   1.021  1.00  0.00     0.201 A 
ATOM      7  C   UNL     1       1.334  -0.586   0.433  1.00  0.00     0.143 A 
ATOM      8  N   UNL     1       1.331  -2.756   0.904  1.00  0.00    -0.232 NA
ATOM      9  N   UNL     1       1.847   0.608   0.044  1.00  0.00    -0.310 N 
ATOM     10  C   UNL     1       2.089  -1.705   0.533  1.00  0.00     0.143 A 
ATOM     11  C   UNL     1       3.185   0.672  -0.244  1.00  0.00     0.200 A 
ATOM     12  C   UNL     1       3.446  -1.653   0.241  1.00  0.00     0.159 A 
ATOM     13  N   UNL     1       3.968  -0.451  -0.144  1.00  0.00    -0.201 NA
ATOM     14  H   UNL     1       1.242   1.456  -0.035  1.00  0.00     0.171 HD
ATOM     15  S   UNL     1       4.402  -2.976   0.341  1.00  0.00    -0.055 S 
BRANCH  11  16
ATOM     16  N   UNL     1       3.772   1.907  -0.654  1.00  0.00    -0.369 N 
ATOM     17  H   UNL     1       3.193   2.771  -0.737  1.00  0.00     0.159 HD
ATOM     18  H   UNL     1       4.792   1.958  -0.876  1.00  0.00     0.159 HD
ENDBRANCH  11  16
ENDBRANCH   1   5
TORSDOF 4
