REMARK SMILES c1ccc2cc(OCCOCCOc3ccc4ccccc4c3)ccc2c1
REMARK SMILES IDX 10 1 9 2 8 3 7 4 6 5 1 6 2 7 27 8 3 9 26 10 4 11 25 12 5 13
REMARK SMILES IDX 24 14 11 15 12 16 13 17 14 18 15 19 23 20 16 21 22 22 17 23
REMARK SMILES IDX 21 24 18 25 20 26 19 27
REMARK H PARENT
ROOT
ATOM      1  O   UNL     1      -0.370   1.451   0.534  1.00  0.00    -0.374 OA
ENDROOT
BRANCH   1   2
ATOM      2  C   UNL     1       0.673   2.374   0.794  1.00  0.00     0.201 C 
BRANCH   2   3
ATOM      3  C   UNL     1       1.966   1.630   1.115  1.00  0.00     0.258 C 
BRANCH   3   4
ATOM      4  O   UNL     1       2.419   0.926  -0.039  1.00  0.00    -0.491 OA
BRANCH   4   5
ATOM      5  C   UNL     1       3.571   0.128  -0.082  1.00  0.00     0.120 A 
ATOM      6  C   UNL     1       7.827  -2.492   0.744  1.00  0.00     0.001 A 
ATOM      7  C   UNL     1       7.514  -1.870   1.957  1.00  0.00     0.001 A 
ATOM      8  C   UNL     1       7.006  -2.308  -0.372  1.00  0.00     0.009 A 
ATOM      9  C   UNL     1       6.379  -1.061   2.061  1.00  0.00     0.009 A 
ATOM     10  C   UNL     1       5.863  -1.498  -0.281  1.00  0.00    -0.018 A 
ATOM     11  C   UNL     1       5.546  -0.869   0.947  1.00  0.00    -0.015 A 
ATOM     12  C   UNL     1       5.032  -1.307  -1.393  1.00  0.00     0.012 A 
ATOM     13  C   UNL     1       4.403  -0.059   1.039  1.00  0.00     0.055 A 
ATOM     14  C   UNL     1       3.895  -0.501  -1.290  1.00  0.00     0.047 A 
ENDBRANCH   4   5
ENDBRANCH   3   4
ENDBRANCH   2   3
ENDBRANCH   1   2
BRANCH   1  15
ATOM     15  C   UNL     1      -0.646   1.350  -0.852  1.00  0.00     0.201 C 
BRANCH  15  16
ATOM     16  C   UNL     1      -1.705   2.376  -1.269  1.00  0.00     0.258 C 
BRANCH  16  17
ATOM     17  O   UNL     1      -2.867   2.274  -0.445  1.00  0.00    -0.491 OA
BRANCH  17  18
ATOM     18  C   UNL     1      -3.826   1.249  -0.506  1.00  0.00     0.120 A 
ATOM     19  C   UNL     1      -3.845   0.283  -1.531  1.00  0.00     0.047 A 
ATOM     20  C   UNL     1      -4.804   1.203   0.495  1.00  0.00     0.055 A 
ATOM     21  C   UNL     1      -4.822  -0.716  -1.546  1.00  0.00     0.012 A 
ATOM     22  C   UNL     1      -5.788   0.203   0.491  1.00  0.00    -0.015 A 
ATOM     23  C   UNL     1      -5.796  -0.767  -0.539  1.00  0.00    -0.018 A 
ATOM     24  C   UNL     1      -6.765   0.155   1.498  1.00  0.00     0.009 A 
ATOM     25  C   UNL     1      -6.780  -1.768  -0.543  1.00  0.00     0.009 A 
ATOM     26  C   UNL     1      -7.740  -0.846   1.482  1.00  0.00     0.001 A 
ATOM     27  C   UNL     1      -7.747  -1.806   0.466  1.00  0.00     0.001 A 
ENDBRANCH  17  18
ENDBRANCH  16  17
ENDBRANCH  15  16
ENDBRANCH   1  15
TORSDOF 8
