REMARK SMILES O=C1NC(=O)/C(=C/c2ccc(/C=C3\NC(=O)NC3=O)cc2)N1
REMARK SMILES IDX 8 1 9 2 10 3 11 4 20 5 21 6 7 7 6 8 2 9 3 10 22 11 4 12 1 13
REMARK SMILES IDX 5 16 12 17 13 18 14 19 18 20 15 21 17 22 19 24 16 25
REMARK H PARENT 3 14 22 15 14 23 17 26
ROOT
ATOM      1  C   UNL     1       1.312  -0.771  -0.555  1.00  0.00    -0.023 A 
ATOM      2  C   UNL     1       0.244  -0.635  -1.452  1.00  0.00     0.009 A 
ATOM      3  C   UNL     1      -1.076  -0.681  -0.994  1.00  0.00     0.009 A 
ATOM      4  C   UNL     1      -1.347  -0.864   0.373  1.00  0.00    -0.023 A 
ATOM      5  C   UNL     1      -0.280  -1.060   1.261  1.00  0.00     0.009 A 
ATOM      6  C   UNL     1       1.040  -1.014   0.802  1.00  0.00     0.009 A 
ENDROOT
BRANCH   1   7
ATOM      7  C   UNL     1       2.695  -0.756  -1.074  1.00  0.00     0.040 C 
BRANCH   7   8
ATOM      8  C   UNL     1       3.714  -0.125  -0.475  1.00  0.00     0.109 C 
ATOM      9  C   UNL     1       4.943   1.220   0.862  1.00  0.00     0.326 C 
ATOM     10  N   UNL     1       5.877   0.736  -0.098  1.00  0.00    -0.272 N 
ATOM     11  N   UNL     1       3.621   0.718   0.675  1.00  0.00    -0.303 N 
ATOM     12  C   UNL     1       5.097  -0.098  -0.942  1.00  0.00     0.275 C 
ATOM     13  O   UNL     1       5.250   2.030   1.775  1.00  0.00    -0.248 OA
ATOM     14  H   UNL     1       6.891   0.971  -0.185  1.00  0.00     0.175 HD
ATOM     15  H   UNL     1       2.762   1.046   1.169  1.00  0.00     0.172 HD
ATOM     16  O   UNL     1       5.554  -0.710  -1.943  1.00  0.00    -0.267 OA
ENDBRANCH   7   8
ENDBRANCH   1   7
BRANCH   4  17
ATOM     17  C   UNL     1      -2.732  -0.955   0.880  1.00  0.00     0.040 C 
BRANCH  17  18
ATOM     18  C   UNL     1      -3.719  -0.126   0.516  1.00  0.00     0.109 C 
ATOM     19  N   UNL     1      -3.584   1.030  -0.313  1.00  0.00    -0.303 N 
ATOM     20  C   UNL     1      -5.103  -0.190   0.977  1.00  0.00     0.275 C 
ATOM     21  C   UNL     1      -4.882   1.619  -0.325  1.00  0.00     0.326 C 
ATOM     22  N   UNL     1      -5.842   0.898   0.442  1.00  0.00    -0.272 N 
ATOM     23  H   UNL     1      -2.709   1.460  -0.685  1.00  0.00     0.172 HD
ATOM     24  O   UNL     1      -5.592  -1.065   1.739  1.00  0.00    -0.267 OA
ATOM     25  O   UNL     1      -5.149   2.687  -0.936  1.00  0.00    -0.248 OA
ATOM     26  H   UNL     1      -6.846   1.136   0.604  1.00  0.00     0.175 HD
ENDBRANCH  17  18
ENDBRANCH   4  17
TORSDOF 4
