REMARK SMILES C=C(O)C1=C(O)C[C@H]2Oc3c(C(C)=O)c(OC(C)=O)c(C)c(OC(C)=O)c3[C@]2(C)C1=O
REMARK SMILES IDX 5 1 4 2 30 3 31 4 28 5 29 6 27 7 22 8 20 9 21 10 15 11 11 12
REMARK SMILES IDX 10 13 9 14 8 15 7 16 6 17 2 19 1 20 3 21 23 23 24 24 25 25
REMARK SMILES IDX 26 26 12 27 13 28 14 29 16 30 17 31 18 32 19 33
REMARK H PARENT 6 18 3 22
ROOT
ATOM      1  C   UNL     1       4.408  -0.325   0.646  1.00  0.00     0.111 C 
ATOM      2  C   UNL     1       4.001   0.669  -0.213  1.00  0.00     0.097 C 
ATOM      3  C   UNL     1       2.542   0.859  -0.522  1.00  0.00     0.184 C 
ATOM      4  O   UNL     1       2.158   1.664  -1.411  1.00  0.00    -0.293 OA
ATOM      5  C   UNL     1       1.558   0.129   0.348  1.00  0.00     0.101 C 
ATOM      6  C   UNL     1       1.410   0.882   1.694  1.00  0.00     0.029 C 
ATOM      7  C   UNL     1       0.180  -0.233  -0.131  1.00  0.00     0.056 A 
ATOM      8  C   UNL     1      -0.832   0.581  -0.642  1.00  0.00     0.145 A 
ATOM      9  C   UNL     1      -2.123   0.023  -0.820  1.00  0.00     0.036 A 
ATOM     10  C   UNL     1      -3.178   0.795  -1.573  1.00  0.00     0.052 C 
ATOM     11  C   UNL     1      -2.405  -1.285  -0.321  1.00  0.00     0.152 A 
ATOM     12  C   UNL     1      -1.377  -2.061   0.275  1.00  0.00     0.103 A 
ATOM     13  C   UNL     1      -0.097  -1.502   0.345  1.00  0.00     0.142 A 
ATOM     14  O   UNL     1       1.035  -2.088   0.904  1.00  0.00    -0.487 OA
ATOM     15  C   UNL     1       2.131  -1.291   0.486  1.00  0.00     0.199 C 
ATOM     16  C   UNL     1       3.422  -1.299   1.294  1.00  0.00     0.122 C 
ENDROOT
BRANCH   1  17
ATOM     17  O   UNL     1       5.757  -0.513   0.960  1.00  0.00    -0.511 OA
ATOM     18  H   UNL     1       6.511   0.011   0.535  1.00  0.00     0.293 HD
ENDBRANCH   1  17
BRANCH   2  19
ATOM     19  C   UNL     1       4.979   1.599  -0.818  1.00  0.00     0.122 C 
ATOM     20  C   UNL     1       5.086   1.708  -2.144  1.00  0.00     0.059 C 
BRANCH  19  21
ATOM     21  O   UNL     1       5.788   2.369   0.018  1.00  0.00    -0.508 OA
ATOM     22  H   UNL     1       6.472   3.021  -0.349  1.00  0.00     0.293 HD
ENDBRANCH  19  21
ENDBRANCH   2  19
BRANCH   8  23
ATOM     23  O   UNL     1      -0.542   1.909  -0.975  1.00  0.00    -0.426 OA
BRANCH  23  24
ATOM     24  C   UNL     1      -1.209   3.006  -0.420  1.00  0.00     0.308 C 
ATOM     25  C   UNL     1      -0.915   4.375  -0.928  1.00  0.00     0.139 C 
ATOM     26  O   UNL     1      -1.996   2.857   0.554  1.00  0.00    -0.252 OA
ENDBRANCH  23  24
ENDBRANCH   8  23
BRANCH  12  27
ATOM     27  C   UNL     1      -1.606  -3.428   0.808  1.00  0.00     0.167 C 
ATOM     28  C   UNL     1      -2.898  -3.827   1.454  1.00  0.00     0.094 C 
ATOM     29  O   UNL     1      -0.690  -4.289   0.718  1.00  0.00    -0.294 OA
ENDBRANCH  12  27
BRANCH  11  30
ATOM     30  O   UNL     1      -3.686  -1.835  -0.458  1.00  0.00    -0.425 OA
BRANCH  30  31
ATOM     31  C   UNL     1      -4.829  -1.281   0.130  1.00  0.00     0.308 C 
ATOM     32  C   UNL     1      -6.165  -1.867  -0.174  1.00  0.00     0.139 C 
ATOM     33  O   UNL     1      -4.733  -0.346   0.970  1.00  0.00    -0.252 OA
ENDBRANCH  30  31
ENDBRANCH  11  30
TORSDOF 8
