REMARK SMILES c1ccc(-n2ncc3cccnc32)cc1
REMARK SMILES IDX 5 1 6 2 7 3 8 4 9 5 10 6 11 7 12 8 13 9 4 10 1 11 2 12 15 13
REMARK SMILES IDX 3 14 14 15
REMARK H PARENT
ROOT
ATOM      1  N   UNL     1       0.031  -0.717   0.333  1.00  0.00    -0.215 N 
ATOM      2  N   UNL     1      -0.133  -1.939   0.835  1.00  0.00    -0.174 NA
ATOM      3  C   UNL     1      -1.452  -2.135   1.084  1.00  0.00     0.146 A 
ATOM      4  C   UNL     1      -2.134  -0.997   0.714  1.00  0.00     0.039 A 
ATOM      5  C   UNL     1      -3.482  -0.661   0.704  1.00  0.00     0.015 A 
ATOM      6  C   UNL     1      -3.822   0.603   0.189  1.00  0.00     0.021 A 
ATOM      7  C   UNL     1      -2.808   1.462  -0.298  1.00  0.00     0.113 A 
ATOM      8  N   UNL     1      -1.496   1.075  -0.267  1.00  0.00    -0.237 NA
ATOM      9  C   UNL     1      -1.183  -0.139   0.253  1.00  0.00     0.162 A 
ENDROOT
BRANCH   1  10
ATOM     10  C   UNL     1       1.306  -0.181  -0.068  1.00  0.00     0.067 A 
ATOM     11  C   UNL     1       3.816   0.829  -0.833  1.00  0.00     0.000 A 
ATOM     12  C   UNL     1       2.817   1.700  -0.391  1.00  0.00     0.002 A 
ATOM     13  C   UNL     1       3.571  -0.545  -0.884  1.00  0.00     0.002 A 
ATOM     14  C   UNL     1       1.569   1.201  -0.006  1.00  0.00     0.028 A 
ATOM     15  C   UNL     1       2.324  -1.049  -0.499  1.00  0.00     0.028 A 
ENDBRANCH   1  10
TORSDOF 1
