REMARK SMILES C=C(O)c1c(OC(C)=O)c(C)c(OC(C)=O)c2c1O[C@H]1CC(=O)C(C(C)=O)=C(O)[C@]21C
REMARK SMILES IDX 4 1 5 2 10 3 11 4 12 5 17 6 18 7 19 8 20 9 21 10 22 11 23 12
REMARK SMILES IDX 24 13 28 14 30 15 31 16 2 17 1 18 3 19 6 21 7 22 8 23 9 24
REMARK SMILES IDX 13 25 14 26 15 27 16 28 29 29 25 31 26 32 27 33
REMARK H PARENT 3 20 29 30
ROOT
ATOM      1  C   UNL     1       1.536  -1.231  -1.476  1.00  0.00     0.101 A 
ATOM      2  C   UNL     1       2.601  -0.829  -0.636  1.00  0.00     0.152 A 
ATOM      3  C   UNL     1       2.332  -0.193   0.601  1.00  0.00     0.036 A 
ATOM      4  C   UNL     1       3.479   0.119   1.531  1.00  0.00     0.052 C 
ATOM      5  C   UNL     1       0.998   0.150   0.954  1.00  0.00     0.145 A 
ATOM      6  C   UNL     1      -0.047  -0.205   0.082  1.00  0.00     0.055 A 
ATOM      7  C   UNL     1       0.234  -0.914  -1.079  1.00  0.00     0.142 A 
ATOM      8  O   UNL     1      -0.922  -1.267  -1.758  1.00  0.00    -0.487 OA
ATOM      9  C   UNL     1      -1.954  -0.484  -1.197  1.00  0.00     0.199 C 
ATOM     10  C   UNL     1      -3.384  -0.963  -1.361  1.00  0.00     0.128 C 
ATOM     11  C   UNL     1      -4.262   0.058  -0.671  1.00  0.00     0.173 C 
ATOM     12  O   UNL     1      -5.485   0.092  -0.973  1.00  0.00    -0.294 OA
ATOM     13  C   UNL     1      -3.694   1.033   0.335  1.00  0.00     0.099 C 
ATOM     14  C   UNL     1      -2.411   0.895   0.785  1.00  0.00     0.121 C 
ATOM     15  C   UNL     1      -1.559  -0.274   0.285  1.00  0.00     0.095 C 
ATOM     16  C   UNL     1      -1.849  -1.506   1.177  1.00  0.00     0.029 C 
ENDROOT
BRANCH   1  17
ATOM     17  C   UNL     1       1.773  -2.040  -2.696  1.00  0.00     0.123 C 
ATOM     18  C   UNL     1       1.201  -1.721  -3.857  1.00  0.00     0.059 C 
BRANCH  17  19
ATOM     19  O   UNL     1       2.611  -3.153  -2.646  1.00  0.00    -0.508 OA
ATOM     20  H   UNL     1       3.034  -3.458  -1.778  1.00  0.00     0.293 HD
ENDBRANCH  17  19
ENDBRANCH   1  17
BRANCH   2  21
ATOM     21  O   UNL     1       3.936  -1.069  -0.997  1.00  0.00    -0.425 OA
BRANCH  21  22
ATOM     22  C   UNL     1       4.505  -0.632  -2.198  1.00  0.00     0.308 C 
ATOM     23  C   UNL     1       5.882  -1.075  -2.558  1.00  0.00     0.139 C 
ATOM     24  O   UNL     1       3.897   0.186  -2.941  1.00  0.00    -0.252 OA
ENDBRANCH  21  22
ENDBRANCH   2  21
BRANCH   5  25
ATOM     25  O   UNL     1       0.725   0.796   2.160  1.00  0.00    -0.426 OA
BRANCH  25  26
ATOM     26  C   UNL     1       1.205   2.075   2.469  1.00  0.00     0.308 C 
ATOM     27  C   UNL     1       0.999   2.624   3.838  1.00  0.00     0.139 C 
ATOM     28  O   UNL     1       1.748   2.791   1.584  1.00  0.00    -0.252 OA
ENDBRANCH  25  26
ENDBRANCH   5  25
BRANCH  14  29
ATOM     29  O   UNL     1      -1.982   1.709   1.830  1.00  0.00    -0.510 OA
ATOM     30  H   UNL     1      -1.474   1.328   2.613  1.00  0.00     0.293 HD
ENDBRANCH  14  29
BRANCH  13  31
ATOM     31  C   UNL     1      -4.545   2.132   0.863  1.00  0.00     0.166 C 
ATOM     32  C   UNL     1      -5.990   1.922   1.195  1.00  0.00     0.094 C 
ATOM     33  O   UNL     1      -4.052   3.282   1.018  1.00  0.00    -0.294 OA
ENDBRANCH  13  31
TORSDOF 8
