REMARK SMILES O=C(Nc1ccc(Br)cc1)Nc1ccccc1Cl
REMARK SMILES IDX 1 1 2 2 3 3 11 4 4 7 5 8 10 9 6 10 9 11 7 12 8 13 12 14
REMARK SMILES IDX 13 15 17 16 14 17 16 18 15 19 18 20
REMARK H PARENT 3 5 11 6
ROOT
ATOM      1  O   UNL     1      -0.028   0.006  -0.997  1.00  0.00    -0.248 OA
ATOM      2  C   UNL     1      -0.080  -0.353   0.212  1.00  0.00     0.323 C 
ATOM      3  N   UNL     1       1.123  -0.687   0.921  1.00  0.00    -0.308 N 
ATOM      4  N   UNL     1      -1.349  -0.491   0.866  1.00  0.00    -0.306 N 
ATOM      5  H   UNL     1       1.030  -1.258   1.792  1.00  0.00     0.171 HD
ATOM      6  H   UNL     1      -1.391  -1.045   1.750  1.00  0.00     0.171 HD
ENDROOT
BRANCH   3   7
ATOM      7  C   UNL     1       2.446  -0.369   0.458  1.00  0.00     0.042 A 
ATOM      8  C   UNL     1       3.512  -1.224   0.778  1.00  0.00     0.027 A 
ATOM      9  C   UNL     1       2.710   0.814  -0.259  1.00  0.00     0.027 A 
ATOM     10  C   UNL     1       4.812  -0.925   0.359  1.00  0.00     0.018 A 
ATOM     11  C   UNL     1       4.011   1.111  -0.677  1.00  0.00     0.018 A 
ATOM     12  C   UNL     1       5.062   0.240  -0.372  1.00  0.00     0.018 A 
ATOM     13  Br  UNL     1       6.838   0.650  -0.942  1.00  0.00    -0.051 Br
ENDBRANCH   3   7
BRANCH   4  14
ATOM     14  C   UNL     1      -2.586  -0.112   0.245  1.00  0.00     0.061 A 
ATOM     15  C   UNL     1      -3.604  -1.067   0.118  1.00  0.00     0.028 A 
ATOM     16  C   UNL     1      -2.815   1.208  -0.201  1.00  0.00     0.064 A 
ATOM     17  C   UNL     1      -4.820  -0.730  -0.482  1.00  0.00     0.002 A 
ATOM     18  C   UNL     1      -4.037   1.537  -0.800  1.00  0.00     0.023 A 
ATOM     19  C   UNL     1      -5.034   0.569  -0.946  1.00  0.00     0.002 A 
ATOM     20  Cl  UNL     1      -1.633   2.487   0.050  1.00  0.00    -0.082 Cl
ENDBRANCH   4  14
TORSDOF 2
