REMARK SMILES CC(C)(C(N)=O)c1ccccc1
REMARK SMILES IDX 4 1 5 2 6 3 2 6 1 7 3 8 7 9 8 10 12 11 9 12 11 13 10 14
REMARK H PARENT 5 4 5 5
ROOT
ATOM      1  C   UNL     1      -1.534   1.201  -0.728  1.00  0.00     0.227 C 
ATOM      2  N   UNL     1      -1.185   2.375   0.010  1.00  0.00    -0.369 N 
ATOM      3  O   UNL     1      -2.231   1.322  -1.773  1.00  0.00    -0.274 OA
ATOM      4  H   UNL     1      -1.487   3.316  -0.326  1.00  0.00     0.159 HD
ATOM      5  H   UNL     1      -0.629   2.310   0.891  1.00  0.00     0.159 HD
ENDROOT
BRANCH   1   6
ATOM      6  C   UNL     1      -1.107  -0.175  -0.232  1.00  0.00     0.068 C 
ATOM      7  C   UNL     1      -1.962  -0.489   1.017  1.00  0.00     0.026 C 
ATOM      8  C   UNL     1      -1.395  -1.258  -1.296  1.00  0.00     0.026 C 
BRANCH   6   9
ATOM      9  C   UNL     1       0.405  -0.175   0.051  1.00  0.00    -0.033 A 
ATOM     10  C   UNL     1       0.963  -0.736   1.224  1.00  0.00     0.005 A 
ATOM     11  C   UNL     1       1.292   0.338  -0.923  1.00  0.00     0.005 A 
ATOM     12  C   UNL     1       2.346  -0.744   1.424  1.00  0.00     0.000 A 
ATOM     13  C   UNL     1       2.673   0.326  -0.716  1.00  0.00     0.000 A 
ATOM     14  C   UNL     1       3.200  -0.211   0.458  1.00  0.00     0.000 A 
ENDBRANCH   6   9
ENDBRANCH   1   6
TORSDOF 2
