REMARK SMILES CNC(=O)Nc1ccc(S(N)(=O)=O)cc1
REMARK SMILES IDX 6 1 7 2 8 3 9 4 14 5 15 6 5 7 2 8 3 9 1 10 4 12 10 14 12 15
REMARK SMILES IDX 13 16 11 17
REMARK H PARENT 2 11 5 13 11 18 11 19
ROOT
ATOM      1  C   UNL     1       0.377  -0.527   0.265  1.00  0.00     0.042 A 
ATOM      2  C   UNL     1      -0.306   0.639   0.655  1.00  0.00     0.027 A 
ATOM      3  C   UNL     1      -1.699   0.638   0.766  1.00  0.00     0.024 A 
ATOM      4  C   UNL     1      -2.427  -0.530   0.508  1.00  0.00     0.082 A 
ATOM      5  C   UNL     1      -1.750  -1.698   0.134  1.00  0.00     0.024 A 
ATOM      6  C   UNL     1      -0.357  -1.698   0.023  1.00  0.00     0.027 A 
ENDROOT
BRANCH   1   7
ATOM      7  N   UNL     1       1.811  -0.561   0.166  1.00  0.00    -0.308 N 
ATOM      8  N   UNL     1       4.041   0.481  -0.136  1.00  0.00    -0.341 N 
ATOM      9  C   UNL     1       2.616   0.544  -0.274  1.00  0.00     0.318 C 
ATOM     10  C   UNL     1       4.906   1.565  -0.584  1.00  0.00     0.144 C 
ATOM     11  H   UNL     1       4.475  -0.362   0.303  1.00  0.00     0.165 HD
ATOM     12  O   UNL     1       2.080   1.551  -0.813  1.00  0.00    -0.249 OA
ATOM     13  H   UNL     1       2.294  -1.471   0.342  1.00  0.00     0.171 HD
ENDBRANCH   1   7
BRANCH   4  14
ATOM     14  S   UNL     1      -4.184  -0.525   0.632  1.00  0.00     0.238 S 
ATOM     15  O   UNL     1      -4.670  -1.891   1.030  1.00  0.00    -0.207 OA
ATOM     16  O   UNL     1      -4.618   0.463   1.678  1.00  0.00    -0.207 OA
BRANCH  14  17
ATOM     17  N   UNL     1      -4.873  -0.091  -0.892  1.00  0.00    -0.225 NA
ATOM     18  H   UNL     1      -4.478   0.841  -1.151  1.00  0.00     0.137 HD
ATOM     19  H   UNL     1      -4.513  -0.775  -1.595  1.00  0.00     0.137 HD
ENDBRANCH  14  17
ENDBRANCH   4  14
TORSDOF 3
