REMARK SMILES N#Cc1ccc(NC(=O)Nc2cccc(C#N)c2)cc1
REMARK SMILES IDX 7 1 8 2 9 3 10 4 6 7 3 8 4 9 20 10 5 11 19 12 2 13 1 14
REMARK SMILES IDX 11 15 12 16 18 17 13 18 15 19 14 20 16 21 17 22
REMARK H PARENT 7 5 10 6
ROOT
ATOM      1  N   UNL     1       1.257  -1.013  -0.550  1.00  0.00    -0.308 N 
ATOM      2  C   UNL     1      -0.020  -0.357  -0.584  1.00  0.00     0.323 C 
ATOM      3  O   UNL     1      -0.099   0.888  -0.398  1.00  0.00    -0.248 OA
ATOM      4  N   UNL     1      -1.194  -1.114  -0.912  1.00  0.00    -0.308 N 
ATOM      5  H   UNL     1       1.330  -1.957  -0.993  1.00  0.00     0.171 HD
ATOM      6  H   UNL     1      -1.060  -2.055  -1.346  1.00  0.00     0.171 HD
ENDROOT
BRANCH   1   7
ATOM      7  C   UNL     1       2.460  -0.412  -0.039  1.00  0.00     0.042 A 
ATOM      8  C   UNL     1       4.846   0.690   0.962  1.00  0.00     0.052 A 
ATOM      9  C   UNL     1       3.619   1.028   1.544  1.00  0.00     0.021 A 
ATOM     10  C   UNL     1       4.883  -0.211  -0.109  1.00  0.00     0.021 A 
ATOM     11  C   UNL     1       2.432   0.476   1.052  1.00  0.00     0.027 A 
ATOM     12  C   UNL     1       3.697  -0.764  -0.602  1.00  0.00     0.027 A 
BRANCH   8  13
ATOM     13  C   UNL     1       6.067   1.257   1.470  1.00  0.00     0.099 C 
ATOM     14  N   UNL     1       7.049   1.713   1.879  1.00  0.00    -0.192 NA
ENDBRANCH   8  13
ENDBRANCH   1   7
BRANCH   4  15
ATOM     15  C   UNL     1      -2.538  -0.618  -0.778  1.00  0.00     0.044 A 
ATOM     16  C   UNL     1      -3.525  -1.057  -1.674  1.00  0.00     0.026 A 
ATOM     17  C   UNL     1      -2.899   0.251   0.269  1.00  0.00     0.045 A 
ATOM     18  C   UNL     1      -4.842  -0.606  -1.552  1.00  0.00     0.004 A 
ATOM     19  C   UNL     1      -4.220   0.702   0.390  1.00  0.00     0.054 A 
ATOM     20  C   UNL     1      -5.190   0.275  -0.525  1.00  0.00     0.019 A 
BRANCH  19  21
ATOM     21  C   UNL     1      -4.583   1.594   1.460  1.00  0.00     0.099 C 
ATOM     22  N   UNL     1      -4.875   2.311   2.320  1.00  0.00    -0.192 NA
ENDBRANCH  19  21
ENDBRANCH   4  15
TORSDOF 4
