REMARK SMILES CC(C)CC(=O)Nc1ccc2ccccc2c1
REMARK SMILES IDX 4 1 2 2 1 3 3 4 5 5 7 6 6 7 8 9 9 10 17 11 10 12 16 13 11 14
REMARK SMILES IDX 15 15 12 16 14 17 13 18
REMARK H PARENT 7 8
ROOT
ATOM      1  C   UNL     1       3.064  -1.364   0.835  1.00  0.00     0.103 C 
ENDROOT
BRANCH   1   2
ATOM      2  C   UNL     1       4.041  -0.211   0.515  1.00  0.00    -0.008 C 
ATOM      3  C   UNL     1       4.428  -0.175  -0.970  1.00  0.00     0.008 C 
ATOM      4  C   UNL     1       3.500   1.151   0.970  1.00  0.00     0.008 C 
ENDBRANCH   1   2
BRANCH   1   5
ATOM      5  C   UNL     1       1.740  -1.242   0.133  1.00  0.00     0.224 C 
ATOM      6  N   UNL     1       0.642  -0.576   0.778  1.00  0.00    -0.326 N 
ATOM      7  O   UNL     1       1.621  -1.684  -1.042  1.00  0.00    -0.275 OA
ATOM      8  H   UNL     1       0.844  -0.032   1.647  1.00  0.00     0.169 HD
BRANCH   6   9
ATOM      9  C   UNL     1      -0.686  -0.501   0.234  1.00  0.00     0.041 A 
ATOM     10  C   UNL     1      -1.258  -1.587  -0.453  1.00  0.00     0.027 A 
ATOM     11  C   UNL     1      -1.449   0.657   0.443  1.00  0.00     0.034 A 
ATOM     12  C   UNL     1      -2.559  -1.504  -0.955  1.00  0.00     0.011 A 
ATOM     13  C   UNL     1      -2.756   0.752  -0.059  1.00  0.00    -0.016 A 
ATOM     14  C   UNL     1      -3.315  -0.338  -0.768  1.00  0.00    -0.018 A 
ATOM     15  C   UNL     1      -3.515   1.916   0.136  1.00  0.00     0.009 A 
ATOM     16  C   UNL     1      -4.622  -0.244  -1.269  1.00  0.00     0.009 A 
ATOM     17  C   UNL     1      -4.816   1.998  -0.370  1.00  0.00     0.001 A 
ATOM     18  C   UNL     1      -5.368   0.922  -1.070  1.00  0.00     0.001 A 
ENDBRANCH   6   9
ENDBRANCH   1   5
TORSDOF 3
