REMARK SMILES CC(=O)Oc1c(C)c(OC(C)=O)c2c(c1C(C)=O)O[C@@H]1CC(=O)C(=C(C)O)C(=O)[C@@]21C
REMARK SMILES IDX 24 1 22 2 23 3 21 4 20 5 19 6 14 7 15 8 5 9 6 10 7 11 8 12
REMARK SMILES IDX 13 13 30 14 31 15 28 16 29 17 25 18 26 19 27 20 9 22 10 23
REMARK SMILES IDX 11 24 12 25 16 26 17 27 18 28 4 29 2 30 1 31 3 32
REMARK H PARENT 27 21
ROOT
ATOM      1  C   UNL     1      -3.975  -0.296   0.638  1.00  0.00     0.099 C 
ATOM      2  C   UNL     1      -4.051  -1.797   0.425  1.00  0.00     0.173 C 
ATOM      3  O   UNL     1      -5.076  -2.444   0.770  1.00  0.00    -0.294 OA
ATOM      4  C   UNL     1      -2.866  -2.591  -0.111  1.00  0.00     0.128 C 
ATOM      5  C   UNL     1      -1.594  -1.876   0.325  1.00  0.00     0.199 C 
ATOM      6  O   UNL     1      -0.338  -2.423  -0.048  1.00  0.00    -0.487 OA
ATOM      7  C   UNL     1       0.568  -1.367  -0.013  1.00  0.00     0.142 A 
ATOM      8  C   UNL     1       1.960  -1.461  -0.081  1.00  0.00     0.103 A 
ATOM      9  C   UNL     1       2.708  -0.254  -0.019  1.00  0.00     0.152 A 
ATOM     10  C   UNL     1       2.042   1.001   0.009  1.00  0.00     0.036 A 
ATOM     11  C   UNL     1       2.854   2.270   0.067  1.00  0.00     0.052 C 
ATOM     12  C   UNL     1       0.625   1.051  -0.020  1.00  0.00     0.145 A 
ATOM     13  C   UNL     1      -0.083  -0.151   0.059  1.00  0.00     0.056 A 
ATOM     14  C   UNL     1      -1.547  -0.415  -0.157  1.00  0.00     0.101 C 
ATOM     15  C   UNL     1      -1.841  -0.240  -1.670  1.00  0.00     0.029 C 
ATOM     16  C   UNL     1      -2.593   0.304   0.645  1.00  0.00     0.184 C 
ATOM     17  O   UNL     1      -2.302   1.331   1.315  1.00  0.00    -0.293 OA
ENDROOT
BRANCH   1  18
ATOM     18  C   UNL     1      -5.091   0.475   0.777  1.00  0.00     0.104 C 
ATOM     19  C   UNL     1      -5.024   1.935   1.130  1.00  0.00     0.087 C 
BRANCH  18  20
ATOM     20  O   UNL     1      -6.378  -0.028   0.556  1.00  0.00    -0.512 OA
ATOM     21  H   UNL     1      -6.575  -0.850   0.003  1.00  0.00     0.293 HD
ENDBRANCH  18  20
ENDBRANCH   1  18
BRANCH  12  22
ATOM     22  O   UNL     1      -0.081   2.256  -0.114  1.00  0.00    -0.426 OA
BRANCH  22  23
ATOM     23  C   UNL     1       0.054   3.145  -1.186  1.00  0.00     0.308 C 
ATOM     24  C   UNL     1      -0.668   4.448  -1.150  1.00  0.00     0.139 C 
ATOM     25  O   UNL     1       0.715   2.825  -2.211  1.00  0.00    -0.252 OA
ENDBRANCH  22  23
ENDBRANCH  12  22
BRANCH   8  26
ATOM     26  C   UNL     1       2.592  -2.790  -0.253  1.00  0.00     0.167 C 
ATOM     27  C   UNL     1       3.726  -3.006  -1.209  1.00  0.00     0.094 C 
ATOM     28  O   UNL     1       2.151  -3.776   0.396  1.00  0.00    -0.294 OA
ENDBRANCH   8  26
BRANCH   9  29
ATOM     29  O   UNL     1       4.108  -0.275   0.020  1.00  0.00    -0.425 OA
BRANCH  29  30
ATOM     30  C   UNL     1       4.836  -0.894   1.042  1.00  0.00     0.308 C 
ATOM     31  C   UNL     1       6.322  -0.949   0.954  1.00  0.00     0.139 C 
ATOM     32  O   UNL     1       4.253  -1.354   2.062  1.00  0.00    -0.252 OA
ENDBRANCH  29  30
ENDBRANCH   9  29
TORSDOF 7
