REMARK SMILES CC(C)(C)NC(=O)NC[C@H]1CCC[C@H]1NC(=O)NC(C)(C)C
REMARK SMILES IDX 10 1 11 2 12 3 13 4 14 5 9 6 8 7 5 8 6 9 7 11 2 13 1 14 3 15
REMARK SMILES IDX 4 16 15 17 16 18 18 19 17 21 19 23 20 24 21 25 22 26
REMARK H PARENT 5 10 8 12 15 20 18 22
ROOT
ATOM      1  C   UNL     1      -0.531   1.961   1.480  1.00  0.00     0.031 C 
ATOM      2  C   UNL     1      -0.568   3.059   2.542  1.00  0.00     0.007 C 
ATOM      3  C   UNL     1       0.772   2.979   3.266  1.00  0.00     0.003 C 
ATOM      4  C   UNL     1       1.731   2.252   2.324  1.00  0.00     0.025 C 
ATOM      5  C   UNL     1       0.945   1.988   1.035  1.00  0.00     0.088 C 
ENDROOT
BRANCH   1   6
ATOM      6  C   UNL     1      -0.987   0.605   2.096  1.00  0.00     0.123 C 
BRANCH   6   7
ATOM      7  N   UNL     1      -1.513  -0.305   1.078  1.00  0.00    -0.338 N 
ATOM      8  N   UNL     1      -3.300  -1.118  -0.444  1.00  0.00    -0.334 N 
ATOM      9  C   UNL     1      -2.803  -0.127   0.475  1.00  0.00     0.315 C 
ATOM     10  H   UNL     1      -2.668  -1.924  -0.644  1.00  0.00     0.165 HD
ATOM     11  O   UNL     1      -3.496   0.885   0.767  1.00  0.00    -0.249 OA
ATOM     12  H   UNL     1      -0.989  -1.185   0.883  1.00  0.00     0.165 HD
BRANCH   8  13
ATOM     13  C   UNL     1      -4.591  -1.047  -1.156  1.00  0.00     0.033 C 
ATOM     14  C   UNL     1      -5.754  -1.088  -0.145  1.00  0.00     0.034 C 
ATOM     15  C   UNL     1      -4.662   0.237  -2.006  1.00  0.00     0.034 C 
ATOM     16  C   UNL     1      -4.711  -2.264  -2.097  1.00  0.00     0.034 C 
ENDBRANCH   8  13
ENDBRANCH   6   7
ENDBRANCH   1   6
BRANCH   5  17
ATOM     17  N   UNL     1       1.368   0.772   0.325  1.00  0.00    -0.335 N 
ATOM     18  C   UNL     1       2.735   0.473   0.005  1.00  0.00     0.315 C 
ATOM     19  N   UNL     1       3.037  -0.656  -0.836  1.00  0.00    -0.334 N 
ATOM     20  H   UNL     1       0.642   0.187  -0.143  1.00  0.00     0.165 HD
ATOM     21  O   UNL     1       3.663   1.192   0.460  1.00  0.00    -0.249 OA
ATOM     22  H   UNL     1       2.226  -1.102  -1.326  1.00  0.00     0.165 HD
BRANCH  19  23
ATOM     23  C   UNL     1       4.371  -1.281  -0.965  1.00  0.00     0.033 C 
ATOM     24  C   UNL     1       5.381  -0.287  -1.575  1.00  0.00     0.034 C 
ATOM     25  C   UNL     1       4.861  -1.758   0.417  1.00  0.00     0.034 C 
ATOM     26  C   UNL     1       4.265  -2.502  -1.903  1.00  0.00     0.034 C 
ENDBRANCH  19  23
ENDBRANCH   5  17
TORSDOF 5
