REMARK SMILES C=C(O)C1=C(O)C[C@@H]2Oc3c(C(C)=O)c(OC(C)=O)c(C)c(OC(C)=O)c3[C@]2(C)C1=O
REMARK SMILES IDX 5 1 4 2 30 3 31 4 28 5 29 6 27 7 22 8 20 9 21 10 15 11 11 12
REMARK SMILES IDX 10 13 9 14 8 15 7 16 6 17 2 19 1 20 3 21 23 23 24 24 25 25
REMARK SMILES IDX 26 26 12 27 13 28 14 29 16 30 17 31 18 32 19 33
REMARK H PARENT 6 18 3 22
ROOT
ATOM      1  C   UNL     1      -3.763  -1.497  -0.111  1.00  0.00     0.111 C 
ATOM      2  C   UNL     1      -3.665  -0.304   0.493  1.00  0.00     0.097 C 
ATOM      3  C   UNL     1      -2.385   0.439   0.422  1.00  0.00     0.184 C 
ATOM      4  O   UNL     1      -2.139   1.331   1.278  1.00  0.00    -0.293 OA
ATOM      5  C   UNL     1      -1.451   0.241  -0.764  1.00  0.00     0.101 C 
ATOM      6  C   UNL     1      -1.651   1.399  -1.759  1.00  0.00     0.029 C 
ATOM      7  C   UNL     1       0.010   0.134  -0.377  1.00  0.00     0.056 A 
ATOM      8  C   UNL     1       0.825   1.041   0.322  1.00  0.00     0.145 A 
ATOM      9  C   UNL     1       2.188   0.711   0.535  1.00  0.00     0.036 A 
ATOM     10  C   UNL     1       3.069   1.601   1.378  1.00  0.00     0.052 C 
ATOM     11  C   UNL     1       2.712  -0.496  -0.004  1.00  0.00     0.152 A 
ATOM     12  C   UNL     1       1.899  -1.337  -0.801  1.00  0.00     0.103 A 
ATOM     13  C   UNL     1       0.551  -0.986  -0.953  1.00  0.00     0.142 A 
ATOM     14  O   UNL     1      -0.394  -1.696  -1.663  1.00  0.00    -0.487 OA
ATOM     15  C   UNL     1      -1.690  -1.134  -1.498  1.00  0.00     0.199 C 
ATOM     16  C   UNL     1      -2.541  -2.138  -0.704  1.00  0.00     0.122 C 
ENDROOT
BRANCH   1  17
ATOM     17  O   UNL     1      -4.973  -2.192  -0.108  1.00  0.00    -0.511 OA
ATOM     18  H   UNL     1      -5.056  -3.111  -0.525  1.00  0.00     0.293 HD
ENDBRANCH   1  17
BRANCH   2  19
ATOM     19  C   UNL     1      -4.839   0.287   1.179  1.00  0.00     0.122 C 
ATOM     20  C   UNL     1      -4.781   0.636   2.463  1.00  0.00     0.059 C 
BRANCH  19  21
ATOM     21  O   UNL     1      -6.032   0.473   0.483  1.00  0.00    -0.508 OA
ATOM     22  H   UNL     1      -6.107   0.250  -0.503  1.00  0.00     0.293 HD
ENDBRANCH  19  21
ENDBRANCH   2  19
BRANCH   8  23
ATOM     23  O   UNL     1       0.291   2.244   0.792  1.00  0.00    -0.426 OA
BRANCH  23  24
ATOM     24  C   UNL     1       0.549   3.477   0.184  1.00  0.00     0.308 C 
ATOM     25  C   UNL     1      -0.060   4.714   0.749  1.00  0.00     0.139 C 
ATOM     26  O   UNL     1       1.243   3.544  -0.868  1.00  0.00    -0.252 OA
ENDBRANCH  23  24
ENDBRANCH   8  23
BRANCH  12  27
ATOM     27  C   UNL     1       2.446  -2.574  -1.422  1.00  0.00     0.167 C 
ATOM     28  C   UNL     1       1.901  -3.120  -2.706  1.00  0.00     0.094 C 
ATOM     29  O   UNL     1       3.375  -3.205  -0.850  1.00  0.00    -0.294 OA
ENDBRANCH  12  27
BRANCH  11  30
ATOM     30  O   UNL     1       4.051  -0.844   0.213  1.00  0.00    -0.425 OA
BRANCH  30  31
ATOM     31  C   UNL     1       4.545  -1.224   1.466  1.00  0.00     0.308 C 
ATOM     32  C   UNL     1       6.004  -1.483   1.630  1.00  0.00     0.139 C 
ATOM     33  O   UNL     1       3.764  -1.411   2.437  1.00  0.00    -0.252 OA
ENDBRANCH  30  31
ENDBRANCH  11  30
TORSDOF 8
