REMARK SMILES Cn1ncc2c(NCc3ccccc3)ncnc21
REMARK SMILES IDX 7 1 6 3 2 4 3 5 18 6 4 7 17 8 5 9 16 10 15 11 1 12 8 13 9 14
REMARK SMILES IDX 10 15 14 16 11 17 13 18 12 19
REMARK H PARENT 7 2
ROOT
ATOM      1  N   UNL     1      -0.362   1.693  -0.680  1.00  0.00    -0.365 N 
ATOM      2  H   UNL     1      -0.109   2.609  -0.247  1.00  0.00     0.162 HD
ENDROOT
BRANCH   1   3
ATOM      3  C   UNL     1       0.603   0.631  -0.701  1.00  0.00     0.140 A 
ATOM      4  N   UNL     1       3.867   0.095   0.495  1.00  0.00    -0.250 N 
ATOM      5  N   UNL     1       3.729   1.344   0.932  1.00  0.00    -0.179 NA
ATOM      6  C   UNL     1       2.739  -0.257  -0.139  1.00  0.00     0.163 A 
ATOM      7  C   UNL     1       2.491   1.781   0.585  1.00  0.00     0.149 A 
ATOM      8  N   UNL     1       2.469  -1.435  -0.751  1.00  0.00    -0.217 NA
ATOM      9  C   UNL     1       1.851   0.767  -0.101  1.00  0.00     0.081 A 
ATOM     10  C   UNL     1       1.246  -1.582  -1.344  1.00  0.00     0.226 A 
ATOM     11  N   UNL     1       0.331  -0.561  -1.316  1.00  0.00    -0.219 NA
ATOM     12  C   UNL     1       5.085  -0.694   0.625  1.00  0.00     0.176 C 
ENDBRANCH   1   3
BRANCH   1  13
ATOM     13  C   UNL     1      -1.702   1.546  -1.246  1.00  0.00     0.150 C 
BRANCH  13  14
ATOM     14  C   UNL     1      -2.541   0.652  -0.373  1.00  0.00    -0.029 A 
ATOM     15  C   UNL     1      -2.908  -0.633  -0.807  1.00  0.00     0.005 A 
ATOM     16  C   UNL     1      -2.942   1.089   0.900  1.00  0.00     0.005 A 
ATOM     17  C   UNL     1      -3.670  -1.464   0.020  1.00  0.00     0.000 A 
ATOM     18  C   UNL     1      -3.705   0.255   1.723  1.00  0.00     0.000 A 
ATOM     19  C   UNL     1      -4.069  -1.020   1.284  1.00  0.00     0.000 A 
ENDBRANCH  13  14
ENDBRANCH   1  13
TORSDOF 3
