REMARK SMILES CC(C)C(=O)c1ccc(O)c(O)c1
REMARK SMILES IDX 6 1 7 2 8 3 9 4 11 5 13 6 4 7 5 8 2 9 1 10 3 11 12 12 10 14
REMARK H PARENT 12 13 10 15
ROOT
ATOM      1  C   UNL     1       0.401   0.176   0.129  1.00  0.00     0.022 A 
ATOM      2  C   UNL     1       0.832  -1.033  -0.450  1.00  0.00     0.016 A 
ATOM      3  C   UNL     1       2.195  -1.314  -0.573  1.00  0.00     0.051 A 
ATOM      4  C   UNL     1       3.151  -0.401  -0.119  1.00  0.00     0.157 A 
ATOM      5  C   UNL     1       2.737   0.804   0.469  1.00  0.00     0.158 A 
ATOM      6  C   UNL     1       1.369   1.086   0.594  1.00  0.00     0.062 A 
ENDROOT
BRANCH   1   7
ATOM      7  C   UNL     1      -1.044   0.497   0.279  1.00  0.00     0.165 C 
ATOM      8  O   UNL     1      -1.397   1.324   1.165  1.00  0.00    -0.294 OA
BRANCH   7   9
ATOM      9  C   UNL     1      -2.111  -0.159  -0.572  1.00  0.00     0.055 C 
ATOM     10  C   UNL     1      -2.760  -1.315   0.194  1.00  0.00     0.016 C 
ATOM     11  C   UNL     1      -3.171   0.860  -1.011  1.00  0.00     0.016 C 
ENDBRANCH   7   9
ENDBRANCH   1   7
BRANCH   5  12
ATOM     12  O   UNL     1       3.685   1.719   0.927  1.00  0.00    -0.504 OA
ATOM     13  H   UNL     1       3.413   2.596   1.356  1.00  0.00     0.293 HD
ENDBRANCH   5  12
BRANCH   4  14
ATOM     14  O   UNL     1       4.503  -0.710  -0.257  1.00  0.00    -0.504 OA
ATOM     15  H   UNL     1       5.234  -0.083   0.057  1.00  0.00     0.293 HD
ENDBRANCH   4  14
TORSDOF 4
