REMARK SMILES NC(=O)c1ccccc1NC(=O)COc1ccc(Cl)cc1
REMARK SMILES IDX 10 1 11 2 12 3 9 5 4 6 5 7 6 8 8 9 7 10 2 11 1 12 3 15 13 16
REMARK SMILES IDX 14 17 15 18 16 19 21 20 17 21 20 22 18 23 19 24
REMARK H PARENT 10 4 1 13 1 14
ROOT
ATOM      1  N   UNL     1       1.124   0.133   0.167  1.00  0.00    -0.322 N 
ATOM      2  C   UNL     1       0.147  -0.289   1.130  1.00  0.00     0.262 C 
ATOM      3  O   UNL     1       0.426  -1.181   1.978  1.00  0.00    -0.271 OA
ATOM      4  H   UNL     1       0.907   0.962  -0.431  1.00  0.00     0.170 HD
ENDROOT
BRANCH   1   5
ATOM      5  C   UNL     1       2.417  -0.484   0.038  1.00  0.00     0.054 A 
ATOM      6  C   UNL     1       3.588   0.303  -0.101  1.00  0.00     0.063 A 
ATOM      7  C   UNL     1       4.826  -0.339  -0.291  1.00  0.00     0.016 A 
ATOM      8  C   UNL     1       4.904  -1.732  -0.350  1.00  0.00     0.001 A 
ATOM      9  C   UNL     1       2.513  -1.886  -0.034  1.00  0.00     0.027 A 
ATOM     10  C   UNL     1       3.750  -2.504  -0.224  1.00  0.00     0.002 A 
BRANCH   6  11
ATOM     11  C   UNL     1       3.549   1.782   0.006  1.00  0.00     0.250 C 
ATOM     12  N   UNL     1       4.428   2.598  -0.772  1.00  0.00    -0.366 N 
ATOM     13  H   UNL     1       4.422   3.636  -0.652  1.00  0.00     0.159 HD
ATOM     14  H   UNL     1       5.045   2.186  -1.506  1.00  0.00     0.159 HD
ATOM     15  O   UNL     1       2.741   2.336   0.800  1.00  0.00    -0.269 OA
ENDBRANCH   6  11
ENDBRANCH   1   5
BRANCH   2  16
ATOM     16  C   UNL     1      -1.222   0.311   1.123  1.00  0.00     0.329 C 
BRANCH  16  17
ATOM     17  O   UNL     1      -2.055  -0.435   0.239  1.00  0.00    -0.484 OA
BRANCH  17  18
ATOM     18  C   UNL     1      -3.416  -0.174   0.023  1.00  0.00     0.120 A 
ATOM     19  C   UNL     1      -4.128  -1.019  -0.838  1.00  0.00     0.048 A 
ATOM     20  C   UNL     1      -4.086   0.901   0.641  1.00  0.00     0.048 A 
ATOM     21  C   UNL     1      -5.489  -0.803  -1.079  1.00  0.00     0.024 A 
ATOM     22  C   UNL     1      -5.447   1.114   0.399  1.00  0.00     0.024 A 
ATOM     23  C   UNL     1      -6.150   0.261  -0.459  1.00  0.00     0.041 A 
ATOM     24  Cl  UNL     1      -7.857   0.530  -0.761  1.00  0.00    -0.084 Cl
ENDBRANCH  17  18
ENDBRANCH  16  17
ENDBRANCH   2  16
TORSDOF 5
