REMARK SMILES C=C(O)C1=C(O)[C@@]2(C)c3c(OC(C)=O)c(C)c(OC(C)=O)c(C(C)=O)c3O[C@@H]2CC1=O
REMARK SMILES IDX 4 1 5 2 7 3 8 4 9 5 10 6 15 7 16 8 17 9 22 10 26 11 27 12
REMARK SMILES IDX 28 13 29 14 30 15 31 16 2 17 1 18 3 19 6 21 11 23 12 24
REMARK SMILES IDX 13 25 14 26 23 27 24 28 25 29 18 30 19 31 20 32 21 33
REMARK H PARENT 3 20 6 22
ROOT
ATOM      1  C   UNL     1      -3.860  -0.063   0.156  1.00  0.00     0.097 C 
ATOM      2  C   UNL     1      -2.623   0.519   0.158  1.00  0.00     0.121 C 
ATOM      3  C   UNL     1      -1.437  -0.334  -0.240  1.00  0.00     0.095 C 
ATOM      4  C   UNL     1      -1.396  -0.472  -1.784  1.00  0.00     0.029 C 
ATOM      5  C   UNL     1      -0.041  -0.008   0.222  1.00  0.00     0.055 A 
ATOM      6  C   UNL     1       0.695   1.173   0.091  1.00  0.00     0.145 A 
ATOM      7  C   UNL     1       2.067   1.156   0.447  1.00  0.00     0.036 A 
ATOM      8  C   UNL     1       2.881   2.425   0.429  1.00  0.00     0.052 C 
ATOM      9  C   UNL     1       2.702  -0.075   0.760  1.00  0.00     0.152 A 
ATOM     10  C   UNL     1       1.951  -1.279   0.814  1.00  0.00     0.103 A 
ATOM     11  C   UNL     1       0.582  -1.204   0.531  1.00  0.00     0.142 A 
ATOM     12  O   UNL     1      -0.324  -2.259   0.525  1.00  0.00    -0.487 OA
ATOM     13  C   UNL     1      -1.615  -1.675   0.504  1.00  0.00     0.199 C 
ATOM     14  C   UNL     1      -2.783  -2.476  -0.052  1.00  0.00     0.128 C 
ATOM     15  C   UNL     1      -3.993  -1.552  -0.081  1.00  0.00     0.173 C 
ATOM     16  O   UNL     1      -5.124  -2.050  -0.329  1.00  0.00    -0.294 OA
ENDROOT
BRANCH   1  17
ATOM     17  C   UNL     1      -5.081   0.746   0.373  1.00  0.00     0.122 C 
ATOM     18  C   UNL     1      -6.000   0.371   1.266  1.00  0.00     0.059 C 
BRANCH  17  19
ATOM     19  O   UNL     1      -5.268   1.909  -0.376  1.00  0.00    -0.508 OA
ATOM     20  H   UNL     1      -6.087   2.494  -0.262  1.00  0.00     0.293 HD
ENDBRANCH  17  19
ENDBRANCH   1  17
BRANCH   2  21
ATOM     21  O   UNL     1      -2.427   1.861   0.492  1.00  0.00    -0.510 OA
ATOM     22  H   UNL     1      -3.158   2.457   0.856  1.00  0.00     0.293 HD
ENDBRANCH   2  21
BRANCH   6  23
ATOM     23  O   UNL     1       0.069   2.329  -0.385  1.00  0.00    -0.426 OA
BRANCH  23  24
ATOM     24  C   UNL     1       0.441   2.973  -1.570  1.00  0.00     0.308 C 
ATOM     25  C   UNL     1      -0.188   4.276  -1.925  1.00  0.00     0.139 C 
ATOM     26  O   UNL     1       1.308   2.468  -2.335  1.00  0.00    -0.252 OA
ENDBRANCH  23  24
ENDBRANCH   6  23
BRANCH  10  27
ATOM     27  C   UNL     1       2.569  -2.564   1.224  1.00  0.00     0.167 C 
ATOM     28  C   UNL     1       2.134  -3.869   0.632  1.00  0.00     0.094 C 
ATOM     29  O   UNL     1       3.456  -2.572   2.119  1.00  0.00    -0.294 OA
ENDBRANCH  10  27
BRANCH   9  30
ATOM     30  O   UNL     1       4.082  -0.076   1.004  1.00  0.00    -0.425 OA
BRANCH  30  31
ATOM     31  C   UNL     1       4.998  -0.785   0.217  1.00  0.00     0.308 C 
ATOM     32  C   UNL     1       6.437  -0.803   0.605  1.00  0.00     0.139 C 
ATOM     33  O   UNL     1       4.630  -1.355  -0.846  1.00  0.00    -0.252 OA
ENDBRANCH  30  31
ENDBRANCH   9  30
TORSDOF 8
