REMARK SMILES c1cncc([C@H]2CCCC[NH2+]2)c1
REMARK SMILES IDX 6 1 11 2 10 3 7 4 8 5 9 6 5 9 4 10 12 11 3 12 1 13 2 14
REMARK H PARENT 11 7 11 8
ROOT
ATOM      1  C   UNL     1      -0.193  -0.512  -0.110  1.00  0.00     0.215 C 
ATOM      2  N   UNL     1      -0.725   0.076  -1.357  1.00  0.00    -0.340 N 
ATOM      3  C   UNL     1      -2.188  -0.067  -1.435  1.00  0.00     0.261 C 
ATOM      4  C   UNL     1      -0.814   0.170   1.127  1.00  0.00     0.070 C 
ATOM      5  C   UNL     1      -2.342   0.073   1.078  1.00  0.00     0.012 C 
ATOM      6  C   UNL     1      -2.876   0.622  -0.248  1.00  0.00     0.062 C 
ATOM      7  H   UNL     1      -0.479   1.092  -1.423  1.00  0.00     0.346 HD
ATOM      8  H   UNL     1      -0.303  -0.419  -2.178  1.00  0.00     0.346 HD
ENDROOT
BRANCH   1   9
ATOM      9  C   UNL     1       1.323  -0.422  -0.072  1.00  0.00     0.028 A 
ATOM     10  C   UNL     1       2.101  -1.590   0.010  1.00  0.00     0.120 A 
ATOM     11  C   UNL     1       1.985   0.817  -0.117  1.00  0.00     0.013 A 
ATOM     12  N   UNL     1       3.458  -1.511   0.043  1.00  0.00    -0.264 NA
ATOM     13  C   UNL     1       3.379   0.870  -0.082  1.00  0.00     0.021 A 
ATOM     14  C   UNL     1       4.107  -0.318  -0.000  1.00  0.00     0.111 A 
ENDBRANCH   1   9
TORSDOF 1
