REMARK SMILES Cc1cc(O)c(-c2cc(O)c(C)cc2O)cc1O
REMARK SMILES IDX 1 1 2 2 3 3 4 4 6 5 16 6 17 7 18 8 5 10 7 12 8 13 14 14 9 15
REMARK SMILES IDX 13 16 11 17 12 18 15 19 10 21
REMARK H PARENT 18 9 5 11 15 20 10 22
ROOT
ATOM      1  C   UNL     1       5.067   0.555  -0.134  1.00  0.00     0.048 C 
ATOM      2  C   UNL     1       3.577   0.369  -0.065  1.00  0.00    -0.006 A 
ATOM      3  C   UNL     1       3.023  -0.919  -0.107  1.00  0.00     0.054 A 
ATOM      4  C   UNL     1       1.638  -1.106  -0.032  1.00  0.00     0.124 A 
ATOM      5  C   UNL     1       0.787   0.014   0.082  1.00  0.00     0.031 A 
ATOM      6  C   UNL     1       1.343   1.302   0.128  1.00  0.00     0.059 A 
ATOM      7  C   UNL     1       2.730   1.483   0.059  1.00  0.00     0.119 A 
ENDROOT
BRANCH   7   8
ATOM      8  O   UNL     1       3.269   2.769   0.111  1.00  0.00    -0.508 OA
ATOM      9  H   UNL     1       2.681   3.589   0.200  1.00  0.00     0.293 HD
ENDBRANCH   7   8
BRANCH   4  10
ATOM     10  O   UNL     1       1.140  -2.410  -0.060  1.00  0.00    -0.507 OA
ATOM     11  H   UNL     1       0.155  -2.624   0.032  1.00  0.00     0.293 HD
ENDBRANCH   4  10
BRANCH   5  12
ATOM     12  C   UNL     1      -0.682  -0.134   0.127  1.00  0.00     0.031 A 
ATOM     13  C   UNL     1      -1.361  -0.531  -1.034  1.00  0.00     0.059 A 
ATOM     14  C   UNL     1      -1.416   0.142   1.299  1.00  0.00     0.124 A 
ATOM     15  C   UNL     1      -2.754  -0.655  -1.044  1.00  0.00     0.119 A 
ATOM     16  C   UNL     1      -2.809   0.024   1.288  1.00  0.00     0.054 A 
ATOM     17  C   UNL     1      -3.491  -0.374   0.127  1.00  0.00    -0.006 A 
ATOM     18  C   UNL     1      -4.990  -0.496   0.151  1.00  0.00     0.048 C 
BRANCH  14  19
ATOM     19  O   UNL     1      -0.790   0.521   2.488  1.00  0.00    -0.507 OA
ATOM     20  H   UNL     1       0.216   0.587   2.583  1.00  0.00     0.293 HD
ENDBRANCH  14  19
BRANCH  15  21
ATOM     21  O   UNL     1      -3.374  -1.056  -2.230  1.00  0.00    -0.508 OA
ATOM     22  H   UNL     1      -4.375  -1.169  -2.318  1.00  0.00     0.293 HD
ENDBRANCH  15  21
ENDBRANCH   5  12
TORSDOF 5
