REMARK SMILES CC(C)(C)c1ccc(C(=O)Nc2ccc(S(N)(=O)=O)cc2)cc1
REMARK SMILES IDX 12 1 13 2 14 3 15 4 20 5 21 6 11 7 9 8 10 9 8 11 5 12 6 13
REMARK SMILES IDX 23 14 7 15 22 16 2 17 1 18 3 19 4 20 16 21 18 22 19 23 17 24
REMARK H PARENT 11 10 17 25 17 26
ROOT
ATOM      1  C   UNL     1       3.022   0.264   0.274  1.00  0.00     0.041 A 
ATOM      2  C   UNL     1       3.618  -0.994   0.474  1.00  0.00     0.027 A 
ATOM      3  C   UNL     1       5.011  -1.116   0.513  1.00  0.00     0.024 A 
ATOM      4  C   UNL     1       5.823   0.016   0.372  1.00  0.00     0.082 A 
ATOM      5  C   UNL     1       5.232   1.272   0.189  1.00  0.00     0.024 A 
ATOM      6  C   UNL     1       3.841   1.397   0.151  1.00  0.00     0.027 A 
ENDROOT
BRANCH   1   7
ATOM      7  N   UNL     1       1.593   0.424   0.256  1.00  0.00    -0.322 N 
ATOM      8  C   UNL     1       0.689  -0.516  -0.355  1.00  0.00     0.255 C 
ATOM      9  O   UNL     1       1.145  -1.499  -1.002  1.00  0.00    -0.269 OA
ATOM     10  H   UNL     1       1.212   1.301   0.673  1.00  0.00     0.170 HD
BRANCH   8  11
ATOM     11  C   UNL     1      -0.781  -0.350  -0.249  1.00  0.00     0.040 A 
ATOM     12  C   UNL     1      -3.606  -0.075  -0.064  1.00  0.00    -0.043 A 
ATOM     13  C   UNL     1      -2.758   1.054  -0.053  1.00  0.00     0.005 A 
ATOM     14  C   UNL     1      -3.001  -1.348  -0.184  1.00  0.00     0.005 A 
ATOM     15  C   UNL     1      -1.371   0.919  -0.147  1.00  0.00     0.014 A 
ATOM     16  C   UNL     1      -1.613  -1.479  -0.279  1.00  0.00     0.014 A 
BRANCH  12  17
ATOM     17  C   UNL     1      -5.133   0.118   0.042  1.00  0.00    -0.013 C 
ATOM     18  C   UNL     1      -5.629   0.965  -1.149  1.00  0.00     0.016 C 
ATOM     19  C   UNL     1      -5.470   0.844   1.363  1.00  0.00     0.016 C 
ATOM     20  C   UNL     1      -5.916  -1.218   0.029  1.00  0.00     0.016 C 
ENDBRANCH  12  17
ENDBRANCH   8  11
ENDBRANCH   1   7
BRANCH   4  21
ATOM     21  S   UNL     1       7.577  -0.143   0.404  1.00  0.00     0.238 S 
ATOM     22  O   UNL     1       8.192   1.115   0.952  1.00  0.00    -0.207 OA
ATOM     23  O   UNL     1       7.968  -1.294   1.289  1.00  0.00    -0.207 OA
BRANCH  21  24
ATOM     24  N   UNL     1       8.164  -0.422  -1.197  1.00  0.00    -0.225 NA
ATOM     25  H   UNL     1       7.682  -1.277  -1.554  1.00  0.00     0.137 HD
ATOM     26  H   UNL     1       7.836   0.376  -1.786  1.00  0.00     0.137 HD
ENDBRANCH  21  24
ENDBRANCH   4  21
TORSDOF 5
