REMARK SMILES CCOC(=O)Nc1c(Cl)n(C)c(=O)n(C)c1=O
REMARK SMILES IDX 4 1 5 2 6 3 3 5 2 6 1 7 7 8 8 9 16 10 10 11 14 12 12 13 9 14
REMARK SMILES IDX 17 15 11 16 15 17 13 18
REMARK H PARENT 6 4
ROOT
ATOM      1  C   UNL     1       1.874  -0.030   0.102  1.00  0.00     0.411 C 
ATOM      2  O   UNL     1       1.655  -0.541   1.236  1.00  0.00    -0.224 OA
ATOM      3  N   UNL     1       0.782   0.378  -0.730  1.00  0.00    -0.284 N 
ATOM      4  H   UNL     1       0.997   0.977  -1.559  1.00  0.00     0.173 HD
ENDROOT
BRANCH   1   5
ATOM      5  O   UNL     1       3.183   0.160  -0.347  1.00  0.00    -0.450 OA
BRANCH   5   6
ATOM      6  C   UNL     1       4.321  -0.217   0.422  1.00  0.00     0.231 C 
ATOM      7  C   UNL     1       5.589   0.119  -0.346  1.00  0.00     0.049 C 
ENDBRANCH   5   6
ENDBRANCH   1   5
BRANCH   3   8
ATOM      8  C   UNL     1      -0.590   0.214  -0.339  1.00  0.00     0.146 A 
ATOM      9  C   UNL     1      -1.149  -1.058  -0.153  1.00  0.00     0.142 A 
ATOM     10  C   UNL     1      -1.407   1.335  -0.184  1.00  0.00     0.281 A 
ATOM     11  N   UNL     1      -2.463  -1.182   0.220  1.00  0.00    -0.285 N 
ATOM     12  N   UNL     1      -2.716   1.191   0.190  1.00  0.00    -0.262 N 
ATOM     13  C   UNL     1      -3.247  -0.063   0.363  1.00  0.00     0.331 A 
ATOM     14  Cl  UNL     1      -0.165  -2.490  -0.500  1.00  0.00    -0.062 Cl
ATOM     15  O   UNL     1      -0.922   2.482  -0.390  1.00  0.00    -0.267 OA
ATOM     16  C   UNL     1      -3.039  -2.526   0.403  1.00  0.00     0.156 C 
ATOM     17  C   UNL     1      -3.577   2.380   0.327  1.00  0.00     0.159 C 
ATOM     18  O   UNL     1      -4.472  -0.186   0.648  1.00  0.00    -0.248 OA
ENDBRANCH   3   8
TORSDOF 3
