REMARK SMILES Oc1c(Cl)cc(Cl)cc1[C@H]1Nc2ccccc2-n2cccc21
REMARK SMILES IDX 2 1 3 2 4 3 5 4 6 5 7 6 8 7 9 8 1 9 10 11 11 12 22 13 12 14
REMARK SMILES IDX 21 15 18 16 13 17 17 18 20 19 19 20 14 21 16 22 15 23
REMARK H PARENT 1 10 11 24
ROOT
ATOM      1  C   UNL     1       1.990  -0.397   0.621  1.00  0.00     0.139 A 
ATOM      2  C   UNL     1       3.293  -0.584   1.126  1.00  0.00     0.084 A 
ATOM      3  Cl  UNL     1       3.592  -1.527   2.580  1.00  0.00    -0.080 Cl
ATOM      4  C   UNL     1       4.386  -0.011   0.469  1.00  0.00     0.045 A 
ATOM      5  C   UNL     1       4.196   0.747  -0.686  1.00  0.00     0.043 A 
ATOM      6  Cl  UNL     1       5.575   1.464  -1.500  1.00  0.00    -0.084 Cl
ATOM      7  C   UNL     1       2.910   0.937  -1.195  1.00  0.00     0.030 A 
ATOM      8  C   UNL     1       1.796   0.367  -0.553  1.00  0.00     0.025 A 
ENDROOT
BRANCH   1   9
ATOM      9  O   UNL     1       0.884  -0.956   1.266  1.00  0.00    -0.506 OA
ATOM     10  H   UNL     1       0.959  -1.510   2.109  1.00  0.00     0.293 HD
ENDBRANCH   1   9
BRANCH   8  11
ATOM     11  C   UNL     1       0.411   0.598  -1.124  1.00  0.00     0.161 C 
ATOM     12  N   UNL     1      -0.221  -0.692  -1.444  1.00  0.00    -0.371 N 
ATOM     13  C   UNL     1      -0.426   1.409  -0.168  1.00  0.00     0.050 A 
ATOM     14  C   UNL     1      -1.459  -1.141  -0.862  1.00  0.00     0.059 A 
ATOM     15  C   UNL     1      -0.148   2.681   0.293  1.00  0.00     0.026 A 
ATOM     16  N   UNL     1      -1.584   0.968   0.351  1.00  0.00    -0.316 N 
ATOM     17  C   UNL     1      -1.979  -2.402  -1.189  1.00  0.00     0.028 A 
ATOM     18  C   UNL     1      -2.148  -0.315   0.044  1.00  0.00     0.069 A 
ATOM     19  C   UNL     1      -1.189   3.019   1.138  1.00  0.00     0.020 A 
ATOM     20  C   UNL     1      -2.059   1.944   1.153  1.00  0.00     0.092 A 
ATOM     21  C   UNL     1      -3.177  -2.838  -0.618  1.00  0.00     0.002 A 
ATOM     22  C   UNL     1      -3.353  -0.760   0.616  1.00  0.00     0.029 A 
ATOM     23  C   UNL     1      -3.862  -2.019   0.283  1.00  0.00     0.002 A 
ATOM     24  H   UNL     1       0.261  -1.308  -2.138  1.00  0.00     0.161 HD
ENDBRANCH   8  11
TORSDOF 2
