REMARK SMILES N=c1[nH]cncc1-c1ccc2ccccc2c1
REMARK SMILES IDX 3 1 4 2 5 3 6 4 7 5 2 6 1 8 8 10 9 11 17 12 10 13 16 14
REMARK SMILES IDX 11 15 15 16 12 17 14 18 13 19
REMARK H PARENT 3 7 1 9
ROOT
ATOM      1  N   UNL     1      -3.425  -2.120   0.657  1.00  0.00    -0.331 N 
ATOM      2  C   UNL     1      -4.498  -1.290   0.593  1.00  0.00     0.198 A 
ATOM      3  N   UNL     1      -4.335   0.012   0.248  1.00  0.00    -0.246 NA
ATOM      4  C   UNL     1      -3.106   0.511  -0.034  1.00  0.00     0.125 A 
ATOM      5  C   UNL     1      -1.974  -0.314   0.032  1.00  0.00     0.042 A 
ATOM      6  C   UNL     1      -2.167  -1.667   0.381  1.00  0.00     0.132 A 
ATOM      7  H   UNL     1      -3.582  -3.120   0.917  1.00  0.00     0.169 HD
ENDROOT
BRANCH   6   8
ATOM      8  N   UNL     1      -1.162  -2.487   0.414  1.00  0.00    -0.284 NA
ATOM      9  H   UNL     1      -1.273  -3.496   0.659  1.00  0.00     0.189 HD
ENDBRANCH   6   8
BRANCH   5  10
ATOM     10  C   UNL     1      -0.632   0.248  -0.267  1.00  0.00    -0.013 A 
ATOM     11  C   UNL     1      -0.427   0.999  -1.437  1.00  0.00     0.009 A 
ATOM     12  C   UNL     1       0.437   0.058   0.626  1.00  0.00     0.017 A 
ATOM     13  C   UNL     1       0.828   1.541  -1.723  1.00  0.00     0.009 A 
ATOM     14  C   UNL     1       1.701   0.599   0.346  1.00  0.00    -0.018 A 
ATOM     15  C   UNL     1       1.899   1.345  -0.840  1.00  0.00    -0.018 A 
ATOM     16  C   UNL     1       2.773   0.408   1.233  1.00  0.00     0.009 A 
ATOM     17  C   UNL     1       3.165   1.885  -1.119  1.00  0.00     0.009 A 
ATOM     18  C   UNL     1       4.028   0.951   0.944  1.00  0.00     0.001 A 
ATOM     19  C   UNL     1       4.223   1.687  -0.228  1.00  0.00     0.001 A 
ENDBRANCH   5  10
TORSDOF 2
