REMARK SMILES Cn1[nH]cc2c(=Nc3ccccc3Cl)nc(Nc3ccccc3Cl)nc1-2
REMARK SMILES IDX 3 1 4 2 5 3 6 4 15 5 16 6 25 7 26 8 2 9 1 10 7 12 8 13 9 14
REMARK SMILES IDX 13 15 10 16 12 17 11 18 14 19 17 20 18 22 19 23 23 24 20 25
REMARK SMILES IDX 22 26 21 27 24 28
REMARK H PARENT 3 11 17 21
ROOT
ATOM      1  N   UNL     1      -1.835   4.365  -1.218  1.00  0.00    -0.304 N 
ATOM      2  C   UNL     1      -2.342   3.105  -1.167  1.00  0.00     0.117 A 
ATOM      3  C   UNL     1      -1.324   2.250  -0.792  1.00  0.00     0.081 A 
ATOM      4  C   UNL     1      -1.215   0.903  -0.502  1.00  0.00     0.169 A 
ATOM      5  N   UNL     1       0.003   0.456  -0.060  1.00  0.00    -0.192 NA
ATOM      6  C   UNL     1       1.092   1.287   0.096  1.00  0.00     0.231 A 
ATOM      7  N   UNL     1       0.991   2.626  -0.173  1.00  0.00    -0.193 NA
ATOM      8  C   UNL     1      -0.194   3.091  -0.628  1.00  0.00     0.163 A 
ATOM      9  N   UNL     1      -0.542   4.357  -0.902  1.00  0.00    -0.274 N 
ATOM     10  C   UNL     1       0.285   5.547  -0.748  1.00  0.00     0.173 C 
ATOM     11  H   UNL     1      -2.382   5.226  -1.443  1.00  0.00     0.187 HD
ENDROOT
BRANCH   4  12
ATOM     12  N   UNL     1      -2.249   0.118  -0.586  1.00  0.00    -0.227 NA
BRANCH  12  13
ATOM     13  C   UNL     1      -2.256  -1.299  -0.340  1.00  0.00     0.084 A 
ATOM     14  C   UNL     1      -1.237  -2.130  -0.841  1.00  0.00     0.030 A 
ATOM     15  C   UNL     1      -3.336  -1.877   0.350  1.00  0.00     0.066 A 
ATOM     16  C   UNL     1      -1.268  -3.507  -0.605  1.00  0.00     0.002 A 
ATOM     17  C   UNL     1      -3.362  -3.257   0.581  1.00  0.00     0.023 A 
ATOM     18  C   UNL     1      -2.327  -4.069   0.111  1.00  0.00     0.002 A 
ATOM     19  Cl  UNL     1      -4.653  -0.881   0.954  1.00  0.00    -0.082 Cl
ENDBRANCH  12  13
ENDBRANCH   4  12
BRANCH   6  20
ATOM     20  N   UNL     1       2.327   0.767   0.607  1.00  0.00    -0.323 N 
ATOM     21  H   UNL     1       3.035   1.447   0.966  1.00  0.00     0.170 HD
BRANCH  20  22
ATOM     22  C   UNL     1       2.590  -0.638   0.740  1.00  0.00     0.060 A 
ATOM     23  C   UNL     1       2.309  -1.514  -0.322  1.00  0.00     0.028 A 
ATOM     24  C   UNL     1       3.167  -1.149   1.919  1.00  0.00     0.064 A 
ATOM     25  C   UNL     1       2.563  -2.882  -0.198  1.00  0.00     0.002 A 
ATOM     26  C   UNL     1       3.421  -2.522   2.036  1.00  0.00     0.023 A 
ATOM     27  C   UNL     1       3.115  -3.386   0.981  1.00  0.00     0.002 A 
ATOM     28  Cl  UNL     1       3.542  -0.099   3.279  1.00  0.00    -0.082 Cl
ENDBRANCH  20  22
ENDBRANCH   6  20
TORSDOF 4
