REMARK SMILES C=C(O)[C@@H]1C(=O)C[C@@H]2Oc3c(C(C)=O)c(OC(C)=O)c(C)c(OC(C)=O)c3[C@]2(C)C1=O
REMARK SMILES IDX 4 1 5 2 6 3 7 4 8 5 9 6 10 7 11 8 15 9 20 10 21 11 22 12
REMARK SMILES IDX 27 13 28 14 29 15 30 16 31 17 2 18 1 19 3 20 23 22 24 23
REMARK SMILES IDX 25 24 26 25 12 26 13 27 14 28 16 29 17 30 18 31 19 32
REMARK H PARENT 3 21
ROOT
ATOM      1  C   UNL     1       3.912   0.437   0.005  1.00  0.00     0.189 C 
ATOM      2  C   UNL     1       4.167  -1.020  -0.270  1.00  0.00     0.154 C 
ATOM      3  O   UNL     1       5.309  -1.454  -0.270  1.00  0.00    -0.298 OA
ATOM      4  C   UNL     1       3.014  -1.925  -0.580  1.00  0.00     0.123 C 
ATOM      5  C   UNL     1       1.983  -1.870   0.557  1.00  0.00     0.198 C 
ATOM      6  O   UNL     1       0.739  -2.370   0.079  1.00  0.00    -0.487 OA
ATOM      7  C   UNL     1      -0.275  -1.459   0.279  1.00  0.00     0.142 A 
ATOM      8  C   UNL     1      -1.621  -1.653  -0.042  1.00  0.00     0.103 A 
ATOM      9  C   UNL     1      -2.536  -0.621   0.287  1.00  0.00     0.152 A 
ATOM     10  C   UNL     1      -2.096   0.519   1.006  1.00  0.00     0.036 A 
ATOM     11  C   UNL     1      -3.110   1.534   1.468  1.00  0.00     0.052 C 
ATOM     12  C   UNL     1      -0.711   0.696   1.268  1.00  0.00     0.145 A 
ATOM     13  C   UNL     1       0.181  -0.318   0.881  1.00  0.00     0.055 A 
ATOM     14  C   UNL     1       1.673  -0.421   1.108  1.00  0.00     0.097 C 
ATOM     15  C   UNL     1       1.997  -0.338   2.611  1.00  0.00     0.029 C 
ATOM     16  C   UNL     1       2.454   0.659   0.360  1.00  0.00     0.165 C 
ATOM     17  O   UNL     1       1.948   1.753   0.152  1.00  0.00    -0.297 OA
ENDROOT
BRANCH   1  18
ATOM     18  C   UNL     1       4.305   1.245  -1.209  1.00  0.00     0.103 C 
ATOM     19  C   UNL     1       5.245   2.191  -1.130  1.00  0.00     0.055 C 
BRANCH  18  20
ATOM     20  O   UNL     1       3.667   0.994  -2.425  1.00  0.00    -0.512 OA
ATOM     21  H   UNL     1       3.894   1.510  -3.267  1.00  0.00     0.293 HD
ENDBRANCH  18  20
ENDBRANCH   1  18
BRANCH  12  22
ATOM     22  O   UNL     1      -0.222   1.826   1.937  1.00  0.00    -0.426 OA
BRANCH  22  23
ATOM     23  C   UNL     1      -0.405   3.138   1.485  1.00  0.00     0.308 C 
ATOM     24  C   UNL     1       0.030   4.276   2.342  1.00  0.00     0.139 C 
ATOM     25  O   UNL     1      -0.865   3.365   0.333  1.00  0.00    -0.252 OA
ENDBRANCH  22  23
ENDBRANCH  12  22
BRANCH   8  26
ATOM     26  C   UNL     1      -2.046  -2.937  -0.647  1.00  0.00     0.167 C 
ATOM     27  C   UNL     1      -3.280  -3.655  -0.189  1.00  0.00     0.094 C 
ATOM     28  O   UNL     1      -1.342  -3.461  -1.551  1.00  0.00    -0.294 OA
ENDBRANCH   8  26
BRANCH   9  29
ATOM     29  O   UNL     1      -3.884  -0.705  -0.085  1.00  0.00    -0.425 OA
BRANCH  29  30
ATOM     30  C   UNL     1      -4.306  -0.781  -1.417  1.00  0.00     0.308 C 
ATOM     31  C   UNL     1      -5.758  -0.938  -1.717  1.00  0.00     0.139 C 
ATOM     32  O   UNL     1      -3.482  -0.659  -2.364  1.00  0.00    -0.252 OA
ENDBRANCH  29  30
ENDBRANCH   9  29
TORSDOF 7
