REMARK SMILES [O-][N@@+]12CCCC[C@@H]1CCC[C@H]2CO
REMARK SMILES IDX 12 1 11 2 2 3 3 4 7 5 4 6 6 7 8 8 10 9 5 10 9 11 1 12 13 13
REMARK H PARENT 13 14
ROOT
ATOM      1  C   UNL     1      -2.511   0.643   1.020  1.00  0.00     0.221 C 
ENDROOT
BRANCH   1   2
ATOM      2  C   UNL     1      -1.406   0.878  -0.051  1.00  0.00     0.211 C 
ATOM      3  N   UNL     1      -0.001   0.651   0.440  1.00  0.00    -0.355 N 
ATOM      4  C   UNL     1       0.958   1.460  -0.365  1.00  0.00     0.264 C 
ATOM      5  C   UNL     1       0.383  -0.797   0.467  1.00  0.00     0.185 C 
ATOM      6  C   UNL     1       2.409   1.310   0.122  1.00  0.00     0.062 C 
ATOM      7  C   UNL     1       1.847  -0.999   0.930  1.00  0.00     0.065 C 
ATOM      8  C   UNL     1       0.128  -1.507  -0.882  1.00  0.00     0.066 C 
ATOM      9  C   UNL     1      -1.717   0.122  -1.368  1.00  0.00     0.068 C 
ATOM     10  C   UNL     1       2.834  -0.154   0.123  1.00  0.00     0.012 C 
ATOM     11  C   UNL     1      -1.326  -1.353  -1.312  1.00  0.00     0.012 C 
ATOM     12  O   UNL     1       0.073   1.118   1.716  1.00  0.00    -0.632 OA
ENDBRANCH   1   2
BRANCH   1  13
ATOM     13  O   UNL     1      -2.524  -0.676   1.486  1.00  0.00    -0.390 OA
ATOM     14  H   UNL     1      -3.255  -0.726   2.156  1.00  0.00     0.210 HD
ENDBRANCH   1  13
TORSDOF 2
