REMARK SMILES CCSc1ncc(CO)c(N)n1
REMARK SMILES IDX 4 1 5 2 6 3 7 4 10 5 12 6 3 7 2 8 1 9 11 10 8 13 9 14
REMARK H PARENT 11 11 11 12 9 15
ROOT
ATOM      1  C   UNL     1       0.932  -0.461   0.937  1.00  0.00     0.189 A 
ATOM      2  N   UNL     1       0.766   0.885   0.974  1.00  0.00    -0.231 NA
ATOM      3  C   UNL     1      -0.435   1.449   0.689  1.00  0.00     0.124 A 
ATOM      4  C   UNL     1      -1.535   0.643   0.360  1.00  0.00     0.038 A 
ATOM      5  C   UNL     1      -1.338  -0.755   0.321  1.00  0.00     0.133 A 
ATOM      6  N   UNL     1      -0.113  -1.265   0.616  1.00  0.00    -0.205 NA
ENDROOT
BRANCH   1   7
ATOM      7  S   UNL     1       2.526  -1.178   1.325  1.00  0.00    -0.086 SA
BRANCH   7   8
ATOM      8  C   UNL     1       3.098  -1.241  -0.409  1.00  0.00     0.075 C 
ATOM      9  C   UNL     1       3.621   0.116  -0.863  1.00  0.00     0.016 C 
ENDBRANCH   7   8
ENDBRANCH   1   7
BRANCH   5  10
ATOM     10  N   UNL     1      -2.394  -1.657  -0.026  1.00  0.00    -0.383 N 
ATOM     11  H   UNL     1      -2.214  -2.686  -0.033  1.00  0.00     0.158 HD
ATOM     12  H   UNL     1      -3.346  -1.329  -0.297  1.00  0.00     0.158 HD
ENDBRANCH   5  10
BRANCH   4  13
ATOM     13  C   UNL     1      -2.860   1.281   0.036  1.00  0.00     0.197 C 
BRANCH  13  14
ATOM     14  O   UNL     1      -3.111   1.167  -1.337  1.00  0.00    -0.391 OA
ATOM     15  H   UNL     1      -4.006   1.569  -1.487  1.00  0.00     0.211 HD
ENDBRANCH  13  14
ENDBRANCH   4  13
TORSDOF 5
