REMARK SMILES Cc1cccc(NC2=C(C#N)C(=O)NC3(CCCC3)S2)c1
REMARK SMILES IDX 8 1 9 2 12 3 13 4 14 5 15 6 16 7 17 8 18 9 19 10 20 11 7 13
REMARK SMILES IDX 6 15 2 16 3 17 21 18 4 19 5 20 1 21 10 22 11 23
REMARK H PARENT 14 12 7 14
ROOT
ATOM      1  C   UNL     1      -0.134  -0.017   0.129  1.00  0.00     0.099 C 
ATOM      2  C   UNL     1      -0.091   0.009   1.478  1.00  0.00     0.147 C 
ATOM      3  C   UNL     1      -1.086   0.776   2.258  1.00  0.00     0.265 C 
ATOM      4  O   UNL     1      -0.848   1.067   3.461  1.00  0.00    -0.268 OA
ATOM      5  N   UNL     1      -2.337   1.166   1.677  1.00  0.00    -0.336 N 
ATOM      6  C   UNL     1      -2.712   0.767   0.317  1.00  0.00     0.092 C 
ATOM      7  C   UNL     1      -3.904   1.577  -0.194  1.00  0.00     0.040 C 
ATOM      8  C   UNL     1      -4.589   0.691  -1.225  1.00  0.00     0.003 C 
ATOM      9  C   UNL     1      -4.198  -0.748  -0.890  1.00  0.00     0.003 C 
ATOM     10  C   UNL     1      -3.210  -0.681   0.271  1.00  0.00     0.040 C 
ATOM     11  S   UNL     1      -1.276   1.032  -0.792  1.00  0.00    -0.079 SA
ATOM     12  H   UNL     1      -2.972   1.776   2.242  1.00  0.00     0.165 HD
ENDROOT
BRANCH   1  13
ATOM     13  N   UNL     1       0.685  -0.920  -0.629  1.00  0.00    -0.349 N 
ATOM     14  H   UNL     1       0.198  -1.554  -1.301  1.00  0.00     0.167 HD
BRANCH  13  15
ATOM     15  C   UNL     1       2.124  -0.875  -0.652  1.00  0.00     0.039 A 
ATOM     16  C   UNL     1       4.238   0.263  -0.205  1.00  0.00    -0.049 A 
ATOM     17  C   UNL     1       4.932  -0.837  -0.729  1.00  0.00     0.003 A 
ATOM     18  C   UNL     1       2.835   0.237  -0.159  1.00  0.00     0.029 A 
ATOM     19  C   UNL     1       4.232  -1.935  -1.233  1.00  0.00     0.002 A 
ATOM     20  C   UNL     1       2.835  -1.952  -1.201  1.00  0.00     0.026 A 
ATOM     21  C   UNL     1       4.989   1.429   0.366  1.00  0.00     0.044 C 
ENDBRANCH  13  15
ENDBRANCH   1  13
BRANCH   2  22
ATOM     22  C   UNL     1       0.845  -0.819   2.203  1.00  0.00     0.108 C 
ATOM     23  N   UNL     1       1.595  -1.482   2.784  1.00  0.00    -0.192 NA
ENDBRANCH   2  22
TORSDOF 3
