REMARK SMILES CCCNC(=O)Nc1ccc(C)cc1C
REMARK SMILES IDX 4 1 5 2 6 3 7 4 3 7 2 8 1 9 8 10 9 11 14 12 10 13 13 14
REMARK SMILES IDX 11 15 15 16 12 17
REMARK H PARENT 4 5 7 6
ROOT
ATOM      1  N   UNL     1       2.475  -0.190   0.386  1.00  0.00    -0.338 N 
ATOM      2  C   UNL     1       1.083  -0.520   0.326  1.00  0.00     0.319 C 
ATOM      3  O   UNL     1       0.716  -1.724   0.412  1.00  0.00    -0.249 OA
ATOM      4  N   UNL     1       0.113   0.521   0.134  1.00  0.00    -0.308 N 
ATOM      5  H   UNL     1       2.751   0.817   0.318  1.00  0.00     0.165 HD
ATOM      6  H   UNL     1       0.463   1.465  -0.145  1.00  0.00     0.171 HD
ENDROOT
BRANCH   1   7
ATOM      7  C   UNL     1       3.498  -1.221   0.567  1.00  0.00     0.117 C 
BRANCH   7   8
ATOM      8  C   UNL     1       4.912  -0.626   0.550  1.00  0.00     0.018 C 
ATOM      9  C   UNL     1       5.315  -0.142  -0.842  1.00  0.00     0.006 C 
ENDBRANCH   7   8
ENDBRANCH   1   7
BRANCH   4  10
ATOM     10  C   UNL     1      -1.308   0.312   0.227  1.00  0.00     0.045 A 
ATOM     11  C   UNL     1      -1.839  -0.485   1.256  1.00  0.00     0.027 A 
ATOM     12  C   UNL     1      -2.188   0.943  -0.682  1.00  0.00    -0.027 A 
ATOM     13  C   UNL     1      -3.217  -0.665   1.378  1.00  0.00     0.005 A 
ATOM     14  C   UNL     1      -3.575   0.764  -0.543  1.00  0.00     0.009 A 
ATOM     15  C   UNL     1      -4.094  -0.030   0.490  1.00  0.00    -0.051 A 
ATOM     16  C   UNL     1      -1.664   1.812  -1.794  1.00  0.00     0.046 C 
ATOM     17  C   UNL     1      -5.574  -0.250   0.603  1.00  0.00     0.044 C 
ENDBRANCH   4  10
TORSDOF 3
