REMARK SMILES CC[C@@H](CNc1cc(OC)cc2cccnc12)[NH2+]C1CCCCC1
REMARK SMILES IDX 4 1 3 2 18 3 19 6 20 7 24 8 21 9 23 10 22 11 2 12 1 13 5 14
REMARK SMILES IDX 6 16 7 17 17 18 8 19 16 20 12 21 11 22 15 23 13 24 14 25
REMARK SMILES IDX 9 26 10 27
REMARK H PARENT 18 4 18 5 5 15
ROOT
ATOM      1  C   UNL     1       0.162  -2.425  -1.017  1.00  0.00     0.177 C 
ENDROOT
BRANCH   1   2
ATOM      2  C   UNL     1       1.169  -2.171   0.143  1.00  0.00     0.201 C 
BRANCH   2   3
ATOM      3  N   UNL     1       1.345  -0.736   0.490  1.00  0.00    -0.340 N 
ATOM      4  H   UNL     1       0.402  -0.298   0.593  1.00  0.00     0.346 HD
ATOM      5  H   UNL     1       1.803  -0.666   1.426  1.00  0.00     0.346 HD
BRANCH   3   6
ATOM      6  C   UNL     1       2.162   0.027  -0.492  1.00  0.00     0.182 C 
ATOM      7  C   UNL     1       3.688  -0.208  -0.320  1.00  0.00     0.065 C 
ATOM      8  C   UNL     1       1.857   1.543  -0.418  1.00  0.00     0.065 C 
ATOM      9  C   UNL     1       4.272   0.477   0.926  1.00  0.00     0.006 C 
ATOM     10  C   UNL     1       2.412   2.183   0.859  1.00  0.00     0.006 C 
ATOM     11  C   UNL     1       3.925   1.967   0.962  1.00  0.00     0.000 C 
ENDBRANCH   3   6
ENDBRANCH   2   3
BRANCH   2  12
ATOM     12  C   UNL     1       0.858  -3.037   1.397  1.00  0.00     0.063 C 
ATOM     13  C   UNL     1      -0.193  -2.462   2.354  1.00  0.00     0.010 C 
ENDBRANCH   2  12
ENDBRANCH   1   2
BRANCH   1  14
ATOM     14  N   UNL     1      -1.220  -2.062  -0.689  1.00  0.00    -0.377 N 
ATOM     15  H   UNL     1      -1.829  -2.840  -0.346  1.00  0.00     0.160 HD
BRANCH  14  16
ATOM     16  C   UNL     1      -1.806  -0.749  -0.832  1.00  0.00     0.065 A 
ATOM     17  C   UNL     1      -1.263   0.208  -1.711  1.00  0.00     0.074 A 
ATOM     18  C   UNL     1      -2.967  -0.418  -0.102  1.00  0.00     0.094 A 
ATOM     19  C   UNL     1      -1.832   1.480  -1.843  1.00  0.00     0.121 A 
ATOM     20  N   UNL     1      -3.530  -1.323   0.748  1.00  0.00    -0.254 NA
ATOM     21  C   UNL     1      -3.551   0.862  -0.239  1.00  0.00     0.006 A 
ATOM     22  C   UNL     1      -2.981   1.805  -1.102  1.00  0.00     0.057 A 
ATOM     23  C   UNL     1      -4.645  -1.038   1.471  1.00  0.00     0.112 A 
ATOM     24  C   UNL     1      -4.702   1.168   0.502  1.00  0.00     0.012 A 
ATOM     25  C   UNL     1      -5.252   0.214   1.360  1.00  0.00     0.021 A 
BRANCH  19  26
ATOM     26  O   UNL     1      -1.222   2.389  -2.720  1.00  0.00    -0.497 OA
ATOM     27  C   UNL     1      -1.688   3.713  -2.962  1.00  0.00     0.278 C 
ENDBRANCH  19  26
ENDBRANCH  14  16
ENDBRANCH   1  14
TORSDOF 7
