REMARK SMILES COc1ccc(C(=S)N2CCN(c3ccccc3C)CC2)cc1
REMARK SMILES IDX 7 1 8 2 6 3 3 4 4 5 23 6 5 7 22 8 2 9 1 10 9 11 10 12 21 13
REMARK SMILES IDX 11 14 20 15 12 16 13 17 14 18 18 19 15 20 17 21 16 22 19 23
REMARK H PARENT
ROOT
ATOM      1  C   UNL     1       1.654   0.646  -1.711  1.00  0.00     0.109 C 
ATOM      2  S   UNL     1       1.876   1.142  -3.264  1.00  0.00    -0.060 S 
ENDROOT
BRANCH   1   3
ATOM      3  C   UNL     1       2.811   0.525  -0.787  1.00  0.00     0.009 A 
ATOM      4  C   UNL     1       4.982   0.294   1.004  1.00  0.00     0.118 A 
ATOM      5  C   UNL     1       3.701   0.591   1.478  1.00  0.00     0.047 A 
ATOM      6  C   UNL     1       5.177   0.112  -0.377  1.00  0.00     0.047 A 
ATOM      7  C   UNL     1       2.624   0.706   0.595  1.00  0.00     0.015 A 
ATOM      8  C   UNL     1       4.101   0.228  -1.263  1.00  0.00     0.015 A 
BRANCH   4   9
ATOM      9  O   UNL     1       6.029   0.189   1.933  1.00  0.00    -0.497 OA
ATOM     10  C   UNL     1       7.379  -0.108   1.591  1.00  0.00     0.278 C 
ENDBRANCH   4   9
ENDBRANCH   1   3
BRANCH   1  11
ATOM     11  N   UNL     1       0.324   0.356  -1.242  1.00  0.00    -0.359 N 
ATOM     12  C   UNL     1      -0.798   1.233  -1.605  1.00  0.00     0.139 C 
ATOM     13  C   UNL     1       0.022  -0.986  -0.726  1.00  0.00     0.139 C 
ATOM     14  C   UNL     1      -1.797   1.315  -0.449  1.00  0.00     0.138 C 
ATOM     15  C   UNL     1      -0.980  -0.896   0.425  1.00  0.00     0.138 C 
ATOM     16  N   UNL     1      -2.098  -0.033   0.037  1.00  0.00    -0.368 N 
BRANCH  16  17
ATOM     17  C   UNL     1      -3.444  -0.537   0.024  1.00  0.00     0.040 A 
ATOM     18  C   UNL     1      -3.777  -1.583  -0.850  1.00  0.00     0.026 A 
ATOM     19  C   UNL     1      -4.435   0.005   0.875  1.00  0.00    -0.028 A 
ATOM     20  C   UNL     1      -5.083  -2.073  -0.901  1.00  0.00     0.002 A 
ATOM     21  C   UNL     1      -5.749  -0.487   0.801  1.00  0.00     0.005 A 
ATOM     22  C   UNL     1      -6.069  -1.523  -0.081  1.00  0.00     0.000 A 
ATOM     23  C   UNL     1      -4.115   1.115   1.840  1.00  0.00     0.046 C 
ENDBRANCH  16  17
ENDBRANCH   1  11
TORSDOF 4
