REMARK SMILES O=C1CC[C@@H](NC(=O)c2ccccc2)C(=O)N1
REMARK SMILES IDX 1 1 2 2 3 3 4 4 5 5 15 6 16 7 17 8 6 10 7 11 8 13 9 14 10 15
REMARK SMILES IDX 14 16 11 17 13 18 12 19
REMARK H PARENT 17 9 6 12
ROOT
ATOM      1  O   UNL     1      -4.658   0.102   1.880  1.00  0.00    -0.275 OA
ATOM      2  C   UNL     1      -3.755  -0.050   1.015  1.00  0.00     0.226 C 
ATOM      3  C   UNL     1      -2.929   1.128   0.587  1.00  0.00     0.103 C 
ATOM      4  C   UNL     1      -2.369   0.919  -0.826  1.00  0.00     0.045 C 
ATOM      5  C   UNL     1      -1.609  -0.414  -0.957  1.00  0.00     0.172 C 
ATOM      6  C   UNL     1      -2.472  -1.559  -0.500  1.00  0.00     0.249 C 
ATOM      7  O   UNL     1      -2.269  -2.716  -0.957  1.00  0.00    -0.272 OA
ATOM      8  N   UNL     1      -3.488  -1.355   0.488  1.00  0.00    -0.295 N 
ATOM      9  H   UNL     1      -4.058  -2.167   0.815  1.00  0.00     0.172 HD
ENDROOT
BRANCH   5  10
ATOM     10  N   UNL     1      -0.373  -0.380  -0.169  1.00  0.00    -0.340 N 
ATOM     11  C   UNL     1       0.845   0.187  -0.681  1.00  0.00     0.251 C 
ATOM     12  H   UNL     1      -0.426  -0.636   0.843  1.00  0.00     0.164 HD
ATOM     13  O   UNL     1       0.843   0.757  -1.806  1.00  0.00    -0.269 OA
BRANCH  11  14
ATOM     14  C   UNL     1       2.104   0.129   0.101  1.00  0.00     0.039 A 
ATOM     15  C   UNL     1       2.313  -0.869   1.072  1.00  0.00     0.014 A 
ATOM     16  C   UNL     1       3.125   1.069  -0.138  1.00  0.00     0.014 A 
ATOM     17  C   UNL     1       3.508  -0.912   1.796  1.00  0.00     0.001 A 
ATOM     18  C   UNL     1       4.317   1.021   0.590  1.00  0.00     0.001 A 
ATOM     19  C   UNL     1       4.508   0.033   1.558  1.00  0.00     0.000 A 
ENDBRANCH  11  14
ENDBRANCH   5  10
TORSDOF 2
