REMARK SMILES Cn1[nH]cc2c(=Nc3ccc(O)cc3)nc(Cl)nc1-2
REMARK SMILES IDX 8 1 9 2 10 3 11 4 13 5 14 6 7 7 6 8 3 9 4 10 2 11 5 12 19 13
REMARK SMILES IDX 18 14 15 15 16 16 1 18 17 19 12 20
REMARK H PARENT 3 17 12 21
ROOT
ATOM      1  C   UNL     1      -2.054   0.354   0.010  1.00  0.00     0.066 A 
ATOM      2  C   UNL     1      -2.535  -0.969  -0.030  1.00  0.00     0.032 A 
ATOM      3  C   UNL     1      -3.880  -1.238   0.244  1.00  0.00     0.048 A 
ATOM      4  C   UNL     1      -4.761  -0.193   0.540  1.00  0.00     0.115 A 
ATOM      5  C   UNL     1      -4.293   1.127   0.552  1.00  0.00     0.048 A 
ATOM      6  C   UNL     1      -2.949   1.398   0.277  1.00  0.00     0.032 A 
ENDROOT
BRANCH   1   7
ATOM      7  N   UNL     1      -0.688   0.679  -0.298  1.00  0.00    -0.228 NA
BRANCH   7   8
ATOM      8  C   UNL     1       0.368  -0.013   0.015  1.00  0.00     0.168 A 
ATOM      9  N   UNL     1       3.498   1.340  -1.113  1.00  0.00    -0.304 N 
ATOM     10  C   UNL     1       2.144   1.465  -1.094  1.00  0.00     0.117 A 
ATOM     11  N   UNL     1       3.871   0.240  -0.463  1.00  0.00    -0.274 N 
ATOM     12  C   UNL     1       1.627   0.398  -0.386  1.00  0.00     0.081 A 
ATOM     13  C   UNL     1       2.764  -0.356   0.004  1.00  0.00     0.162 A 
ATOM     14  N   UNL     1       2.666  -1.461   0.776  1.00  0.00    -0.198 NA
ATOM     15  N   UNL     1       0.299  -1.139   0.793  1.00  0.00    -0.198 NA
ATOM     16  C   UNL     1       1.414  -1.854   1.165  1.00  0.00     0.226 A 
ATOM     17  H   UNL     1       4.160   2.017  -1.556  1.00  0.00     0.187 HD
ATOM     18  C   UNL     1       5.252  -0.148  -0.205  1.00  0.00     0.173 C 
ATOM     19  Cl  UNL     1       1.229  -3.281   2.160  1.00  0.00    -0.041 Cl
ENDBRANCH   7   8
ENDBRANCH   1   7
BRANCH   4  20
ATOM     20  O   UNL     1      -6.097  -0.476   0.812  1.00  0.00    -0.508 OA
ATOM     21  H   UNL     1      -6.761   0.259   1.028  1.00  0.00     0.293 HD
ENDBRANCH   4  20
TORSDOF 3
