REMARK SMILES O=C([O-])c1nc(O)[nH]c(=O)c1F
REMARK SMILES IDX 6 1 5 2 4 3 11 4 12 5 9 6 10 7 8 8 7 10 2 12 1 13 3 14
REMARK H PARENT 8 9 7 11
ROOT
ATOM      1  C   UNL     1      -1.331   0.740  -0.033  1.00  0.00     0.294 A 
ATOM      2  N   UNL     1      -0.037   1.124   0.126  1.00  0.00    -0.192 NA
ATOM      3  C   UNL     1       0.981   0.222   0.112  1.00  0.00     0.133 A 
ATOM      4  C   UNL     1       0.684  -1.139  -0.071  1.00  0.00     0.215 A 
ATOM      5  F   UNL     1       1.661  -2.083  -0.093  1.00  0.00    -0.198 F 
ATOM      6  C   UNL     1      -0.652  -1.516  -0.232  1.00  0.00     0.290 A 
ATOM      7  O   UNL     1      -0.948  -2.730  -0.398  1.00  0.00    -0.266 OA
ATOM      8  N   UNL     1      -1.633  -0.574  -0.211  1.00  0.00    -0.274 N 
ATOM      9  H   UNL     1      -2.631  -0.859  -0.332  1.00  0.00     0.175 HD
ENDROOT
BRANCH   1  10
ATOM     10  O   UNL     1      -2.347   1.690  -0.013  1.00  0.00    -0.480 OA
ATOM     11  H   UNL     1      -2.138   2.672   0.118  1.00  0.00     0.296 HD
ENDBRANCH   1  10
BRANCH   3  12
ATOM     12  C   UNL     1       2.365   0.703   0.290  1.00  0.00     0.093 C 
ATOM     13  O   UNL     1       2.586   1.932   0.452  1.00  0.00    -0.543 OA
ATOM     14  O   UNL     1       3.438  -0.181   0.284  1.00  0.00    -0.543 OA
ENDBRANCH   3  12
TORSDOF 2
