REMARK SMILES COc1ccc2nc(-c3ccc(Cl)cc3)cc(C(=O)[O-])c2c1
REMARK SMILES IDX 17 1 16 2 21 3 8 4 22 5 6 6 7 7 3 8 5 9 4 10 18 11 19 12
REMARK SMILES IDX 20 13 9 14 10 15 15 16 11 17 14 18 12 19 13 20 2 21 1 22
REMARK H PARENT
ROOT
ATOM      1  C   UNL     1       0.002  -0.402  -1.798  1.00  0.00     0.009 A 
ATOM      2  C   UNL     1       1.203   0.162  -1.337  1.00  0.00     0.039 A 
ATOM      3  C   UNL     1      -1.068  -0.584  -0.884  1.00  0.00     0.013 A 
ATOM      4  C   UNL     1       1.360   0.495   0.018  1.00  0.00     0.072 A 
ATOM      5  C   UNL     1      -2.340  -1.056  -1.273  1.00  0.00     0.057 A 
ATOM      6  C   UNL     1      -0.863  -0.232   0.472  1.00  0.00     0.072 A 
ATOM      7  N   UNL     1       0.325   0.287   0.874  1.00  0.00    -0.248 NA
ATOM      8  C   UNL     1      -3.366  -1.222  -0.335  1.00  0.00     0.119 A 
ATOM      9  C   UNL     1      -1.887  -0.403   1.409  1.00  0.00     0.033 A 
ATOM     10  C   UNL     1      -3.128  -0.901   1.013  1.00  0.00     0.048 A 
ENDROOT
BRANCH   1  11
ATOM     11  C   UNL     1      -0.074  -0.807  -3.220  1.00  0.00     0.072 C 
ATOM     12  O   UNL     1       0.458  -0.092  -4.110  1.00  0.00    -0.545 OA
ATOM     13  O   UNL     1      -0.665  -2.011  -3.586  1.00  0.00    -0.545 OA
ENDBRANCH   1  11
BRANCH   4  14
ATOM     14  C   UNL     1       2.623   1.079   0.538  1.00  0.00     0.000 A 
ATOM     15  C   UNL     1       2.588   1.947   1.645  1.00  0.00     0.012 A 
ATOM     16  C   UNL     1       3.870   0.761  -0.036  1.00  0.00     0.012 A 
ATOM     17  C   UNL     1       3.767   2.500   2.152  1.00  0.00     0.021 A 
ATOM     18  C   UNL     1       5.048   1.316   0.476  1.00  0.00     0.021 A 
ATOM     19  C   UNL     1       4.997   2.187   1.567  1.00  0.00     0.041 A 
ATOM     20  Cl  UNL     1       6.476   2.881   2.207  1.00  0.00    -0.084 Cl
ENDBRANCH   4  14
BRANCH   8  21
ATOM     21  O   UNL     1      -4.605  -1.703  -0.784  1.00  0.00    -0.497 OA
ATOM     22  C   UNL     1      -5.736  -1.919   0.054  1.00  0.00     0.278 C 
ENDBRANCH   8  21
TORSDOF 3
