REMARK SMILES Cn1c(=O)c2nc(CNc3ccc(C(=O)[O-])cc3)[nH]c2n(C)c1=O
REMARK SMILES IDX 9 1 8 3 7 4 19 5 20 6 6 7 21 8 5 9 23 10 3 11 2 12 22 14
REMARK SMILES IDX 24 15 4 16 1 17 10 18 11 19 18 20 12 21 17 22 13 23 14 24
REMARK SMILES IDX 15 25 16 26
REMARK H PARENT 9 2 19 13
ROOT
ATOM      1  N   UNL     1       1.675  -0.193  -0.158  1.00  0.00    -0.378 N 
ATOM      2  H   UNL     1       1.105  -0.908  -0.666  1.00  0.00     0.161 HD
ENDROOT
BRANCH   1   3
ATOM      3  C   UNL     1       0.988   0.929   0.483  1.00  0.00     0.188 C 
BRANCH   3   4
ATOM      4  C   UNL     1      -0.492   0.826   0.281  1.00  0.00     0.128 A 
ATOM      5  N   UNL     1      -1.296   0.065   1.065  1.00  0.00    -0.326 N 
ATOM      6  C   UNL     1      -2.506   0.213   0.506  1.00  0.00     0.147 A 
ATOM      7  N   UNL     1      -1.142   1.433  -0.748  1.00  0.00    -0.224 NA
ATOM      8  N   UNL     1      -3.686  -0.331   0.913  1.00  0.00    -0.281 N 
ATOM      9  C   UNL     1      -2.412   1.027  -0.567  1.00  0.00     0.171 A 
ATOM     10  C   UNL     1      -4.820  -0.011   0.194  1.00  0.00     0.332 A 
ATOM     11  C   UNL     1      -3.536   1.342  -1.308  1.00  0.00     0.284 A 
ATOM     12  N   UNL     1      -4.743   0.798  -0.929  1.00  0.00    -0.261 N 
ATOM     13  H   UNL     1      -1.026  -0.499   1.901  1.00  0.00     0.169 HD
ATOM     14  C   UNL     1      -3.728  -1.187   2.107  1.00  0.00     0.157 C 
ATOM     15  O   UNL     1      -5.942  -0.457   0.567  1.00  0.00    -0.247 OA
ATOM     16  O   UNL     1      -3.443   2.116  -2.301  1.00  0.00    -0.267 OA
ATOM     17  C   UNL     1      -5.967   1.141  -1.671  1.00  0.00     0.159 C 
ENDBRANCH   3   4
ENDBRANCH   1   3
BRANCH   1  18
ATOM     18  C   UNL     1       3.105  -0.365  -0.126  1.00  0.00     0.034 A 
ATOM     19  C   UNL     1       3.947   0.550   0.532  1.00  0.00     0.026 A 
ATOM     20  C   UNL     1       3.677  -1.474  -0.766  1.00  0.00     0.026 A 
ATOM     21  C   UNL     1       5.332   0.355   0.546  1.00  0.00     0.012 A 
ATOM     22  C   UNL     1       5.061  -1.669  -0.752  1.00  0.00     0.012 A 
ATOM     23  C   UNL     1       5.903  -0.756  -0.096  1.00  0.00    -0.003 A 
BRANCH  23  24
ATOM     24  C   UNL     1       7.369  -0.958  -0.078  1.00  0.00     0.071 C 
ATOM     25  O   UNL     1       7.886  -1.953  -0.652  1.00  0.00    -0.545 OA
ATOM     26  O   UNL     1       8.197  -0.051   0.574  1.00  0.00    -0.545 OA
ENDBRANCH  23  24
ENDBRANCH   1  18
TORSDOF 4
