REMARK SMILES Sc1ncnc2c1ncn2C1CCCC1
REMARK SMILES IDX 2 1 3 2 4 3 5 4 6 5 7 6 8 7 9 8 10 9 1 10 11 12 12 13 15 14
REMARK SMILES IDX 13 15 14 16
REMARK H PARENT 1 11
ROOT
ATOM      1  C   UNL     1       3.756  -0.476   0.173  1.00  0.00     0.124 A 
ATOM      2  N   UNL     1       3.790  -1.351  -0.875  1.00  0.00    -0.228 NA
ATOM      3  C   UNL     1       2.658  -1.656  -1.587  1.00  0.00     0.225 A 
ATOM      4  N   UNL     1       1.460  -1.085  -1.260  1.00  0.00    -0.217 NA
ATOM      5  C   UNL     1       1.426  -0.228  -0.211  1.00  0.00     0.164 A 
ATOM      6  C   UNL     1       2.532   0.092   0.499  1.00  0.00     0.140 A 
ATOM      7  N   UNL     1       2.242   1.014   1.434  1.00  0.00    -0.232 NA
ATOM      8  C   UNL     1       0.909   1.220   1.248  1.00  0.00     0.202 A 
ATOM      9  N   UNL     1       0.369   0.454   0.260  1.00  0.00    -0.312 N 
ENDROOT
BRANCH   1  10
ATOM     10  S   UNL     1       5.249  -0.076   1.073  1.00  0.00    -0.121 SA
ATOM     11  H   UNL     1       5.541   1.000   0.213  1.00  0.00     0.110 HD
ENDBRANCH   1  10
BRANCH   9  12
ATOM     12  C   UNL     1      -0.984   0.532  -0.317  1.00  0.00     0.090 C 
ATOM     13  C   UNL     1      -1.547  -0.845  -0.664  1.00  0.00     0.025 C 
ATOM     14  C   UNL     1      -2.008   1.118   0.650  1.00  0.00     0.025 C 
ATOM     15  C   UNL     1      -3.064  -0.729  -0.538  1.00  0.00     0.002 C 
ATOM     16  C   UNL     1      -3.351   0.591   0.174  1.00  0.00     0.002 C 
ENDBRANCH   9  12
TORSDOF 2
