REMARK SMILES C=C(O)C1=C(O)[C@]2(C)c3c(OC(C)=O)c(C)c(OC(C)=O)c(C(C)=O)c3O[C@H]2C=C1O
REMARK SMILES IDX 4 1 5 2 7 3 8 4 9 5 10 6 15 7 16 8 17 9 22 10 26 11 27 12
REMARK SMILES IDX 28 13 29 14 30 15 2 16 1 17 3 18 6 20 31 22 11 24 12 25
REMARK SMILES IDX 13 26 14 27 23 28 24 29 25 30 18 31 19 32 20 33 21 34
REMARK H PARENT 3 19 6 21 31 23
ROOT
ATOM      1  C   UNL     1      -3.758  -0.385  -0.782  1.00  0.00     0.096 C 
ATOM      2  C   UNL     1      -2.591   0.269  -0.499  1.00  0.00     0.122 C 
ATOM      3  C   UNL     1      -1.444  -0.565   0.065  1.00  0.00     0.098 C 
ATOM      4  C   UNL     1      -1.755  -0.929   1.545  1.00  0.00     0.030 C 
ATOM      5  C   UNL     1       0.015  -0.176   0.010  1.00  0.00     0.056 A 
ATOM      6  C   UNL     1       0.667   0.920   0.594  1.00  0.00     0.145 A 
ATOM      7  C   UNL     1       2.086   0.891   0.693  1.00  0.00     0.036 A 
ATOM      8  C   UNL     1       2.821   1.966   1.458  1.00  0.00     0.052 C 
ATOM      9  C   UNL     1       2.810  -0.227   0.186  1.00  0.00     0.152 A 
ATOM     10  C   UNL     1       2.123  -1.377  -0.271  1.00  0.00     0.103 A 
ATOM     11  C   UNL     1       0.725  -1.327  -0.312  1.00  0.00     0.143 A 
ATOM     12  O   UNL     1      -0.126  -2.374  -0.654  1.00  0.00    -0.483 OA
ATOM     13  C   UNL     1      -1.394  -1.790  -0.869  1.00  0.00     0.218 C 
ATOM     14  C   UNL     1      -2.640  -2.602  -0.716  1.00  0.00     0.065 C 
ATOM     15  C   UNL     1      -3.798  -1.900  -0.736  1.00  0.00     0.129 C 
ENDROOT
BRANCH   1  16
ATOM     16  C   UNL     1      -4.949   0.367  -1.236  1.00  0.00     0.122 C 
ATOM     17  C   UNL     1      -6.114   0.245  -0.603  1.00  0.00     0.059 C 
BRANCH  16  18
ATOM     18  O   UNL     1      -4.863   1.223  -2.333  1.00  0.00    -0.508 OA
ATOM     19  H   UNL     1      -4.008   1.310  -2.869  1.00  0.00     0.293 HD
ENDBRANCH  16  18
ENDBRANCH   1  16
BRANCH   2  20
ATOM     20  O   UNL     1      -2.480   1.639  -0.726  1.00  0.00    -0.510 OA
ATOM     21  H   UNL     1      -1.586   2.098  -0.779  1.00  0.00     0.293 HD
ENDBRANCH   2  20
BRANCH  15  22
ATOM     22  O   UNL     1      -5.022  -2.569  -0.723  1.00  0.00    -0.507 OA
ATOM     23  H   UNL     1      -5.076  -3.581  -0.696  1.00  0.00     0.293 HD
ENDBRANCH  15  22
BRANCH   6  24
ATOM     24  O   UNL     1      -0.095   1.955   1.153  1.00  0.00    -0.426 OA
BRANCH  24  25
ATOM     25  C   UNL     1       0.093   3.313   0.865  1.00  0.00     0.308 C 
ATOM     26  C   UNL     1      -0.630   4.339   1.667  1.00  0.00     0.139 C 
ATOM     27  O   UNL     1       0.795   3.672  -0.119  1.00  0.00    -0.252 OA
ENDBRANCH  24  25
ENDBRANCH   6  24
BRANCH  10  28
ATOM     28  C   UNL     1       2.864  -2.594  -0.701  1.00  0.00     0.167 C 
ATOM     29  C   UNL     1       2.284  -3.967  -0.551  1.00  0.00     0.094 C 
ATOM     30  O   UNL     1       4.000  -2.479  -1.235  1.00  0.00    -0.294 OA
ENDBRANCH  10  28
BRANCH   9  31
ATOM     31  O   UNL     1       4.213  -0.238   0.201  1.00  0.00    -0.425 OA
BRANCH  31  32
ATOM     32  C   UNL     1       4.997   0.721  -0.451  1.00  0.00     0.308 C 
ATOM     33  C   UNL     1       6.476   0.706  -0.266  1.00  0.00     0.139 C 
ATOM     34  O   UNL     1       4.475   1.552  -1.243  1.00  0.00    -0.252 OA
ENDBRANCH  31  32
ENDBRANCH   9  31
TORSDOF 9
