REMARK SMILES CC(C)COC(=O)NC1c2ccccc2Oc2ccccc21
REMARK SMILES IDX 4 1 2 2 1 3 3 4 5 5 6 6 8 7 7 8 9 10 10 11 22 12 11 13 15 14
REMARK SMILES IDX 21 15 17 16 12 17 14 18 16 19 20 20 18 21 13 22 19 23
REMARK H PARENT 8 9
ROOT
ATOM      1  C   UNL     1       1.476   0.418   3.183  1.00  0.00     0.238 C 
ENDROOT
BRANCH   1   2
ATOM      2  C   UNL     1       2.697   1.298   3.488  1.00  0.00     0.021 C 
ATOM      3  C   UNL     1       2.451   2.751   3.059  1.00  0.00     0.011 C 
ATOM      4  C   UNL     1       3.044   1.235   4.980  1.00  0.00     0.011 C 
ENDBRANCH   1   2
BRANCH   1   5
ATOM      5  O   UNL     1       1.241   0.379   1.779  1.00  0.00    -0.449 OA
BRANCH   5   6
ATOM      6  C   UNL     1       0.185  -0.338   1.210  1.00  0.00     0.407 C 
ATOM      7  N   UNL     1       0.014  -0.318  -0.212  1.00  0.00    -0.310 N 
ATOM      8  O   UNL     1      -0.608  -0.993   1.941  1.00  0.00    -0.225 OA
ATOM      9  H   UNL     1       0.678   0.260  -0.777  1.00  0.00     0.168 HD
BRANCH   7  10
ATOM     10  C   UNL     1      -1.095  -0.983  -0.900  1.00  0.00     0.154 C 
ATOM     11  C   UNL     1      -2.068   0.066  -1.395  1.00  0.00     0.022 A 
ATOM     12  C   UNL     1      -0.537  -1.853  -2.006  1.00  0.00     0.022 A 
ATOM     13  C   UNL     1      -2.809   0.821  -0.470  1.00  0.00     0.010 A 
ATOM     14  C   UNL     1      -2.204   0.338  -2.771  1.00  0.00     0.133 A 
ATOM     15  C   UNL     1       0.232  -2.983  -1.679  1.00  0.00     0.010 A 
ATOM     16  C   UNL     1      -0.726  -1.516  -3.361  1.00  0.00     0.133 A 
ATOM     17  C   UNL     1      -3.666   1.833  -0.909  1.00  0.00     0.001 A 
ATOM     18  C   UNL     1      -3.058   1.359  -3.203  1.00  0.00     0.047 A 
ATOM     19  O   UNL     1      -1.506  -0.415  -3.717  1.00  0.00    -0.457 OA
ATOM     20  C   UNL     1       0.804  -3.763  -2.688  1.00  0.00     0.001 A 
ATOM     21  C   UNL     1      -0.142  -2.297  -4.365  1.00  0.00     0.047 A 
ATOM     22  C   UNL     1      -3.788   2.104  -2.274  1.00  0.00     0.004 A 
ATOM     23  C   UNL     1       0.620  -3.419  -4.029  1.00  0.00     0.004 A 
ENDBRANCH   7  10
ENDBRANCH   5   6
ENDBRANCH   1   5
TORSDOF 4
