REMARK SMILES Cc1ccc(Cl)cc1NC(=O)c1cc2ccccc2cc1O
REMARK SMILES IDX 12 1 13 2 14 3 15 4 16 5 17 6 18 7 19 8 20 9 21 10 10 11
REMARK SMILES IDX 9 12 11 14 8 15 2 16 3 17 4 18 7 19 5 20 1 21 6 22 22 23
REMARK H PARENT 9 13 22 24
ROOT
ATOM      1  C   UNL     1       0.953  -0.244  -0.498  1.00  0.00     0.082 A 
ATOM      2  C   UNL     1       1.960   0.162  -1.391  1.00  0.00     0.026 A 
ATOM      3  C   UNL     1       3.313   0.067  -1.035  1.00  0.00    -0.017 A 
ATOM      4  C   UNL     1       4.317   0.483  -1.924  1.00  0.00     0.009 A 
ATOM      5  C   UNL     1       5.663   0.387  -1.557  1.00  0.00     0.001 A 
ATOM      6  C   UNL     1       6.015  -0.124  -0.305  1.00  0.00     0.001 A 
ATOM      7  C   UNL     1       5.025  -0.542   0.588  1.00  0.00     0.009 A 
ATOM      8  C   UNL     1       3.670  -0.450   0.231  1.00  0.00    -0.015 A 
ATOM      9  C   UNL     1       2.668  -0.871   1.116  1.00  0.00     0.055 A 
ATOM     10  C   UNL     1       1.316  -0.781   0.756  1.00  0.00     0.128 A 
ENDROOT
BRANCH   1  11
ATOM     11  C   UNL     1      -0.468  -0.119  -0.903  1.00  0.00     0.259 C 
ATOM     12  N   UNL     1      -1.481   0.210   0.061  1.00  0.00    -0.322 N 
ATOM     13  H   UNL     1      -1.180   0.687   0.940  1.00  0.00     0.170 HD
ATOM     14  O   UNL     1      -0.778  -0.247  -2.119  1.00  0.00    -0.269 OA
BRANCH  12  15
ATOM     15  C   UNL     1      -2.888   0.015  -0.175  1.00  0.00     0.045 A 
ATOM     16  C   UNL     1      -3.838   0.941   0.318  1.00  0.00    -0.027 A 
ATOM     17  C   UNL     1      -5.208   0.702   0.114  1.00  0.00     0.007 A 
ATOM     18  C   UNL     1      -5.634  -0.434  -0.577  1.00  0.00     0.021 A 
ATOM     19  C   UNL     1      -3.335  -1.131  -0.858  1.00  0.00     0.047 A 
ATOM     20  C   UNL     1      -4.700  -1.350  -1.062  1.00  0.00     0.043 A 
ATOM     21  C   UNL     1      -3.408   2.174   1.066  1.00  0.00     0.046 C 
ATOM     22  Cl  UNL     1      -5.241  -2.784  -1.915  1.00  0.00    -0.084 Cl
ENDBRANCH  12  15
ENDBRANCH   1  11
BRANCH  10  23
ATOM     23  O   UNL     1       0.339  -1.248   1.635  1.00  0.00    -0.507 OA
ATOM     24  H   UNL     1       0.578  -1.643   2.537  1.00  0.00     0.293 HD
ENDBRANCH  10  23
TORSDOF 3
