REMARK SMILES Cc1ccc(-n2nnnc2-c2cccnc2)cc1
REMARK SMILES IDX 1 1 2 2 3 3 4 4 5 5 17 6 18 7 6 8 7 9 10 10 8 11 9 12 11 13
REMARK SMILES IDX 12 14 16 15 13 16 15 17 14 18
REMARK H PARENT
ROOT
ATOM      1  C   UNL     1      -4.231   1.222   0.178  1.00  0.00     0.044 C 
ATOM      2  C   UNL     1      -2.959   0.470  -0.076  1.00  0.00    -0.051 A 
ATOM      3  C   UNL     1      -2.727  -0.124  -1.326  1.00  0.00     0.005 A 
ATOM      4  C   UNL     1      -1.557  -0.856  -1.552  1.00  0.00     0.029 A 
ATOM      5  C   UNL     1      -0.603  -1.002  -0.534  1.00  0.00     0.069 A 
ATOM      6  C   UNL     1      -0.856  -0.441   0.729  1.00  0.00     0.029 A 
ATOM      7  C   UNL     1      -2.025   0.291   0.955  1.00  0.00     0.005 A 
ENDROOT
BRANCH   5   8
ATOM      8  N   UNL     1       0.586  -1.772  -0.774  1.00  0.00    -0.193 N 
ATOM      9  N   UNL     1       0.597  -2.927  -1.417  1.00  0.00    -0.040 NA
ATOM     10  C   UNL     1       1.850  -1.577  -0.337  1.00  0.00     0.188 A 
ATOM     11  N   UNL     1       1.821  -3.430  -1.375  1.00  0.00    -0.023 NA
ATOM     12  N   UNL     1       2.625  -2.614  -0.708  1.00  0.00    -0.108 NA
BRANCH  10  13
ATOM     13  C   UNL     1       2.372  -0.381   0.359  1.00  0.00     0.040 A 
ATOM     14  C   UNL     1       1.937   0.910   0.019  1.00  0.00     0.015 A 
ATOM     15  C   UNL     1       3.365  -0.518   1.340  1.00  0.00     0.123 A 
ATOM     16  C   UNL     1       2.463   2.021   0.681  1.00  0.00     0.021 A 
ATOM     17  N   UNL     1       3.863   0.581   1.969  1.00  0.00    -0.264 NA
ATOM     18  C   UNL     1       3.433   1.834   1.666  1.00  0.00     0.111 A 
ENDBRANCH  10  13
ENDBRANCH   5   8
TORSDOF 2
