REMARK SMILES CC(=O)Oc1c(C)c(OC(C)=O)c2c(c1C(C)=O)O[C@H]1CC(=O)C(=C(C)O)C(=O)[C@@]21C
REMARK SMILES IDX 24 1 22 2 23 3 21 4 20 5 19 6 14 7 15 8 5 9 6 10 7 11 8 12
REMARK SMILES IDX 13 13 30 14 31 15 28 16 29 17 25 18 26 19 27 20 9 22 10 23
REMARK SMILES IDX 11 24 12 25 16 26 17 27 18 28 4 29 2 30 1 31 3 32
REMARK H PARENT 27 21
ROOT
ATOM      1  C   UNL     1       3.649   0.395  -0.528  1.00  0.00     0.099 C 
ATOM      2  C   UNL     1       3.902  -0.991  -0.985  1.00  0.00     0.173 C 
ATOM      3  O   UNL     1       5.061  -1.485  -1.034  1.00  0.00    -0.294 OA
ATOM      4  C   UNL     1       2.721  -1.824  -1.365  1.00  0.00     0.128 C 
ATOM      5  C   UNL     1       1.697  -1.863  -0.217  1.00  0.00     0.199 C 
ATOM      6  O   UNL     1       0.435  -2.258  -0.743  1.00  0.00    -0.487 OA
ATOM      7  C   UNL     1      -0.549  -1.345  -0.430  1.00  0.00     0.142 A 
ATOM      8  C   UNL     1      -1.903  -1.450  -0.772  1.00  0.00     0.103 A 
ATOM      9  C   UNL     1      -2.790  -0.476  -0.249  1.00  0.00     0.152 A 
ATOM     10  C   UNL     1      -2.301   0.580   0.568  1.00  0.00     0.036 A 
ATOM     11  C   UNL     1      -3.265   1.590   1.143  1.00  0.00     0.052 C 
ATOM     12  C   UNL     1      -0.907   0.686   0.821  1.00  0.00     0.145 A 
ATOM     13  C   UNL     1      -0.054  -0.304   0.308  1.00  0.00     0.056 A 
ATOM     14  C   UNL     1       1.435  -0.483   0.511  1.00  0.00     0.101 C 
ATOM     15  C   UNL     1       1.760  -0.603   2.012  1.00  0.00     0.029 C 
ATOM     16  C   UNL     1       2.255   0.654  -0.088  1.00  0.00     0.184 C 
ATOM     17  O   UNL     1       1.766   1.812  -0.189  1.00  0.00    -0.293 OA
ENDROOT
BRANCH   1  18
ATOM     18  C   UNL     1       4.587   1.375  -0.519  1.00  0.00     0.104 C 
ATOM     19  C   UNL     1       5.983   1.168  -1.045  1.00  0.00     0.087 C 
BRANCH  18  20
ATOM     20  O   UNL     1       4.267   2.627   0.011  1.00  0.00    -0.512 OA
ATOM     21  H   UNL     1       4.943   3.380   0.051  1.00  0.00     0.293 HD
ENDBRANCH  18  20
ENDBRANCH   1  18
BRANCH  12  22
ATOM     22  O   UNL     1      -0.373   1.716   1.607  1.00  0.00    -0.426 OA
BRANCH  22  23
ATOM     23  C   UNL     1      -0.506   3.076   1.304  1.00  0.00     0.308 C 
ATOM     24  C   UNL     1      -0.017   4.093   2.276  1.00  0.00     0.139 C 
ATOM     25  O   UNL     1      -0.960   3.448   0.187  1.00  0.00    -0.252 OA
ENDBRANCH  22  23
ENDBRANCH  12  22
BRANCH   8  26
ATOM     26  C   UNL     1      -2.385  -2.553  -1.646  1.00  0.00     0.167 C 
ATOM     27  C   UNL     1      -1.511  -3.161  -2.701  1.00  0.00     0.094 C 
ATOM     28  O   UNL     1      -3.547  -3.016  -1.495  1.00  0.00    -0.294 OA
ENDBRANCH   8  26
BRANCH   9  29
ATOM     29  O   UNL     1      -4.154  -0.541  -0.559  1.00  0.00    -0.425 OA
BRANCH  29  30
ATOM     30  C   UNL     1      -5.086  -1.164   0.280  1.00  0.00     0.308 C 
ATOM     31  C   UNL     1      -6.528  -1.159  -0.097  1.00  0.00     0.139 C 
ATOM     32  O   UNL     1      -4.723  -1.694   1.365  1.00  0.00    -0.252 OA
ENDBRANCH  29  30
ENDBRANCH   9  29
TORSDOF 7
