REMARK SMILES O=C(Nc1ccc(Oc2ccc(NC(=O)Nc3ccccc3Cl)cc2)cc1)Nc1ccccc1Cl
REMARK SMILES IDX 8 1 7 2 4 3 5 4 27 5 6 6 26 7 3 8 2 9 28 10 1 11 29 14 30 15
REMARK SMILES IDX 34 16 31 17 33 18 32 19 35 20 9 21 10 22 25 23 11 24 24 25
REMARK SMILES IDX 12 26 13 27 14 28 16 29 15 31 17 33 18 34 22 35 19 36 21 37
REMARK SMILES IDX 20 38 23 39
REMARK H PARENT 3 12 28 13 13 30 16 32
ROOT
ATOM      1  O   UNL     1       0.017  -1.470   0.289  1.00  0.00    -0.457 OA
ENDROOT
BRANCH   1   2
ATOM      2  C   UNL     1      -1.232  -0.839   0.205  1.00  0.00     0.127 A 
ATOM      3  C   UNL     1      -3.787   0.341   0.041  1.00  0.00     0.043 A 
ATOM      4  C   UNL     1      -3.561  -0.759   0.888  1.00  0.00     0.030 A 
ATOM      5  C   UNL     1      -2.719   0.853  -0.711  1.00  0.00     0.030 A 
ATOM      6  C   UNL     1      -2.296  -1.351   0.955  1.00  0.00     0.049 A 
ATOM      7  C   UNL     1      -1.454   0.262  -0.641  1.00  0.00     0.049 A 
BRANCH   3   8
ATOM      8  N   UNL     1      -5.071   0.984  -0.030  1.00  0.00    -0.308 N 
ATOM      9  C   UNL     1      -6.326   0.299   0.103  1.00  0.00     0.323 C 
ATOM     10  N   UNL     1      -7.527   1.058   0.301  1.00  0.00    -0.306 N 
ATOM     11  O   UNL     1      -6.373  -0.960   0.041  1.00  0.00    -0.248 OA
ATOM     12  H   UNL     1      -5.100   2.000  -0.272  1.00  0.00     0.171 HD
ATOM     13  H   UNL     1      -7.428   2.067   0.555  1.00  0.00     0.171 HD
BRANCH  10  14
ATOM     14  C   UNL     1      -8.846   0.483   0.265  1.00  0.00     0.061 A 
ATOM     15  C   UNL     1      -9.187  -0.460  -0.722  1.00  0.00     0.028 A 
ATOM     16  C   UNL     1      -9.828   0.896   1.188  1.00  0.00     0.064 A 
ATOM     17  C   UNL     1     -10.475  -1.000  -0.770  1.00  0.00     0.002 A 
ATOM     18  C   UNL     1     -11.116   0.348   1.133  1.00  0.00     0.023 A 
ATOM     19  C   UNL     1     -11.437  -0.599   0.158  1.00  0.00     0.002 A 
ATOM     20  Cl  UNL     1      -9.463   2.067   2.451  1.00  0.00    -0.082 Cl
ENDBRANCH  10  14
ENDBRANCH   3   8
ENDBRANCH   1   2
BRANCH   1  21
ATOM     21  C   UNL     1       1.260  -0.834   0.153  1.00  0.00     0.127 A 
ATOM     22  C   UNL     1       1.460   0.502   0.542  1.00  0.00     0.049 A 
ATOM     23  C   UNL     1       2.340  -1.571  -0.344  1.00  0.00     0.049 A 
ATOM     24  C   UNL     1       2.720   1.093   0.409  1.00  0.00     0.030 A 
ATOM     25  C   UNL     1       3.601  -0.981  -0.476  1.00  0.00     0.030 A 
ATOM     26  C   UNL     1       3.804   0.354  -0.086  1.00  0.00     0.043 A 
BRANCH  26  27
ATOM     27  N   UNL     1       5.085   0.993  -0.232  1.00  0.00    -0.308 N 
ATOM     28  C   UNL     1       6.342   0.321  -0.066  1.00  0.00     0.323 C 
ATOM     29  N   UNL     1       7.555   0.987  -0.449  1.00  0.00    -0.306 N 
ATOM     30  H   UNL     1       5.103   2.026  -0.392  1.00  0.00     0.171 HD
ATOM     31  O   UNL     1       6.388  -0.819   0.474  1.00  0.00    -0.248 OA
ATOM     32  H   UNL     1       7.501   2.006  -0.671  1.00  0.00     0.171 HD
BRANCH  29  33
ATOM     33  C   UNL     1       8.841   0.342  -0.486  1.00  0.00     0.061 A 
ATOM     34  C   UNL     1       8.967  -0.978  -0.959  1.00  0.00     0.028 A 
ATOM     35  C   UNL     1      10.002   1.046  -0.104  1.00  0.00     0.064 A 
ATOM     36  C   UNL     1      10.221  -1.591  -1.024  1.00  0.00     0.002 A 
ATOM     37  C   UNL     1      11.254   0.423  -0.172  1.00  0.00     0.023 A 
ATOM     38  C   UNL     1      11.363  -0.892  -0.628  1.00  0.00     0.002 A 
ATOM     39  Cl  UNL     1       9.915   2.698   0.498  1.00  0.00    -0.082 Cl
ENDBRANCH  29  33
ENDBRANCH  26  27
ENDBRANCH   1  21
TORSDOF 6
