REMARK SMILES C[NH+]1CCC(=C2c3ccccc3C(O)c3ccccc32)CC1
REMARK SMILES IDX 6 1 7 2 20 3 8 4 12 5 19 6 15 7 9 8 11 9 13 10 18 11 16 12
REMARK SMILES IDX 10 13 17 14 5 15 2 16 3 17 22 18 4 19 21 20 1 21 14 23
REMARK H PARENT 2 22 14 24
ROOT
ATOM      1  C   UNL     1       0.814   0.842  -1.523  1.00  0.00    -0.011 C 
ATOM      2  C   UNL     1      -0.162   0.111  -2.387  1.00  0.00    -0.012 A 
ATOM      3  C   UNL     1       1.083   2.282  -1.847  1.00  0.00    -0.012 A 
ATOM      4  C   UNL     1      -0.857  -1.020  -1.906  1.00  0.00     0.009 A 
ATOM      5  C   UNL     1      -0.518   0.638  -3.646  1.00  0.00    -0.007 A 
ATOM      6  C   UNL     1       1.829   3.133  -0.999  1.00  0.00     0.009 A 
ATOM      7  C   UNL     1       0.642   2.798  -3.091  1.00  0.00    -0.007 A 
ATOM      8  C   UNL     1      -1.800  -1.671  -2.704  1.00  0.00     0.001 A 
ATOM      9  C   UNL     1      -1.458  -0.035  -4.445  1.00  0.00     0.007 A 
ATOM     10  C   UNL     1       0.137   1.885  -4.184  1.00  0.00     0.176 C 
ATOM     11  C   UNL     1       2.019   4.478  -1.319  1.00  0.00     0.001 A 
ATOM     12  C   UNL     1       0.849   4.154  -3.401  1.00  0.00     0.007 A 
ATOM     13  C   UNL     1      -2.090  -1.187  -3.978  1.00  0.00     0.000 A 
ATOM     14  C   UNL     1       1.512   4.993  -2.509  1.00  0.00     0.000 A 
ENDROOT
BRANCH   1  15
ATOM     15  C   UNL     1       1.510   0.190  -0.563  1.00  0.00    -0.051 C 
ATOM     16  N   UNL     1       3.192  -1.026   1.422  1.00  0.00    -0.337 N 
ATOM     17  C   UNL     1       2.648   0.335   1.641  1.00  0.00     0.266 C 
ATOM     18  C   UNL     1       3.425  -1.284  -0.018  1.00  0.00     0.266 C 
ATOM     19  C   UNL     1       1.321   0.527   0.894  1.00  0.00     0.093 C 
ATOM     20  C   UNL     1       2.124  -1.163  -0.822  1.00  0.00     0.093 C 
ATOM     21  C   UNL     1       4.448  -1.192   2.173  1.00  0.00     0.332 C 
ATOM     22  H   UNL     1       2.507  -1.730   1.789  1.00  0.00     0.347 HD
ENDBRANCH   1  15
BRANCH  10  23
ATOM     23  O   UNL     1       1.221   1.526  -5.000  1.00  0.00    -0.384 OA
ATOM     24  H   UNL     1       0.842   1.226  -5.868  1.00  0.00     0.211 HD
ENDBRANCH  10  23
TORSDOF 2
