REMARK SMILES N=c1[nH]c(=Nc2ccc(Br)cc2)[nH]cc1N
REMARK SMILES IDX 3 1 4 2 13 3 14 4 15 5 2 6 5 9 6 10 7 11 12 12 8 13 11 14
REMARK SMILES IDX 9 15 10 16 1 17 16 19
REMARK H PARENT 3 7 13 8 1 18 16 20 16 21
ROOT
ATOM      1  N   UNL     1       1.884   1.239  -0.347  1.00  0.00    -0.309 N 
ATOM      2  C   UNL     1       0.711   0.585  -0.113  1.00  0.00     0.206 A 
ATOM      3  N   UNL     1       0.735  -0.749   0.194  1.00  0.00    -0.330 N 
ATOM      4  C   UNL     1       1.907  -1.435   0.233  1.00  0.00     0.115 A 
ATOM      5  C   UNL     1       3.115  -0.786  -0.027  1.00  0.00     0.091 A 
ATOM      6  C   UNL     1       3.081   0.586  -0.318  1.00  0.00     0.149 A 
ATOM      7  H   UNL     1       1.859   2.263  -0.563  1.00  0.00     0.171 HD
ATOM      8  H   UNL     1      -0.134  -1.269   0.442  1.00  0.00     0.169 HD
ENDROOT
BRANCH   2   9
ATOM      9  N   UNL     1      -0.404   1.262  -0.153  1.00  0.00    -0.215 NA
BRANCH   9  10
ATOM     10  C   UNL     1      -1.739   0.747  -0.040  1.00  0.00     0.067 A 
ATOM     11  C   UNL     1      -2.182  -0.314  -0.850  1.00  0.00     0.029 A 
ATOM     12  C   UNL     1      -2.650   1.390   0.807  1.00  0.00     0.029 A 
ATOM     13  C   UNL     1      -3.504  -0.760  -0.764  1.00  0.00     0.018 A 
ATOM     14  C   UNL     1      -3.973   0.943   0.892  1.00  0.00     0.018 A 
ATOM     15  C   UNL     1      -4.399  -0.136   0.111  1.00  0.00     0.018 A 
ATOM     16  Br  UNL     1      -6.206  -0.744   0.224  1.00  0.00    -0.051 Br
ENDBRANCH   9  10
ENDBRANCH   2   9
BRANCH   6  17
ATOM     17  N   UNL     1       4.182   1.230  -0.555  1.00  0.00    -0.283 NA
ATOM     18  H   UNL     1       4.193   2.252  -0.774  1.00  0.00     0.189 HD
ENDBRANCH   6  17
BRANCH   5  19
ATOM     19  N   UNL     1       4.347  -1.518   0.016  1.00  0.00    -0.395 N 
ATOM     20  H   UNL     1       5.264  -1.056  -0.172  1.00  0.00     0.156 HD
ATOM     21  H   UNL     1       4.350  -2.539   0.238  1.00  0.00     0.156 HD
ENDBRANCH   5  19
TORSDOF 4
