REMARK SMILES CCOP(=O)(OCC)/C(C#N)=C/c1ccc(Br)cc1
REMARK SMILES IDX 4 1 5 2 3 3 2 4 1 5 6 6 7 7 8 8 9 9 10 10 11 11 12 12 13 13
REMARK SMILES IDX 14 14 19 15 15 16 18 17 16 18 17 19
REMARK H PARENT
ROOT
ATOM      1  P   UNL     1      -1.466  -0.005   0.238  1.00  0.00     0.371 P 
ATOM      2  O   UNL     1      -1.793   0.105   1.713  1.00  0.00    -0.254 OA
ENDROOT
BRANCH   1   3
ATOM      3  O   UNL     1      -1.875  -1.565  -0.317  1.00  0.00    -0.305 OA
BRANCH   3   4
ATOM      4  C   UNL     1      -3.273  -1.710  -0.237  1.00  0.00     0.168 C 
ATOM      5  C   UNL     1      -3.653  -3.109  -0.698  1.00  0.00     0.035 C 
ENDBRANCH   3   4
ENDBRANCH   1   3
BRANCH   1   6
ATOM      6  O   UNL     1      -2.317   1.167  -0.671  1.00  0.00    -0.305 OA
BRANCH   6   7
ATOM      7  C   UNL     1      -2.336   2.377   0.050  1.00  0.00     0.168 C 
ATOM      8  C   UNL     1      -2.921   3.469  -0.832  1.00  0.00     0.035 C 
ENDBRANCH   6   7
ENDBRANCH   1   6
BRANCH   1   9
ATOM      9  C   UNL     1       0.301   0.212   0.011  1.00  0.00     0.142 C 
BRANCH   9  10
ATOM     10  C   UNL     1       0.748   1.163  -0.977  1.00  0.00     0.108 C 
ATOM     11  N   UNL     1       1.104   1.926  -1.771  1.00  0.00    -0.192 NA
ENDBRANCH   9  10
BRANCH   9  12
ATOM     12  C   UNL     1       1.152  -0.578   0.687  1.00  0.00     0.036 C 
BRANCH  12  13
ATOM     13  C   UNL     1       2.628  -0.516   0.585  1.00  0.00    -0.024 A 
ATOM     14  C   UNL     1       3.322   0.708   0.622  1.00  0.00     0.009 A 
ATOM     15  C   UNL     1       3.357  -1.714   0.529  1.00  0.00     0.009 A 
ATOM     16  C   UNL     1       4.719   0.729   0.556  1.00  0.00     0.016 A 
ATOM     17  C   UNL     1       4.754  -1.690   0.464  1.00  0.00     0.016 A 
ATOM     18  C   UNL     1       5.436  -0.469   0.472  1.00  0.00     0.018 A 
ATOM     19  Br  UNL     1       7.343  -0.438   0.386  1.00  0.00    -0.051 Br
ENDBRANCH  12  13
ENDBRANCH   9  12
ENDBRANCH   1   9
TORSDOF 8
