REMARK SMILES CC(=O)Oc1c(C)c(OC(C)=O)c2c(c1C(C)=O)O[C@@H]1C=C(O)C(=C(C)O)C(=O)[C@]21C
REMARK SMILES IDX 24 1 28 2 29 3 30 4 31 5 13 6 8 7 6 8 7 9 5 10 15 11 14 12
REMARK SMILES IDX 19 13 20 14 21 15 22 16 25 17 26 18 27 19 23 21 9 23 10 24
REMARK SMILES IDX 11 25 12 26 16 27 17 28 18 29 4 30 2 31 1 32 3 33
REMARK H PARENT 27 20 23 22
ROOT
ATOM      1  C   UNL     1       3.457   0.058  -0.282  1.00  0.00     0.097 C 
ATOM      2  C   UNL     1       2.457   1.149  -0.379  1.00  0.00     0.184 C 
ATOM      3  O   UNL     1       2.540   2.151   0.382  1.00  0.00    -0.293 OA
ATOM      4  C   UNL     1       1.340   1.078  -1.405  1.00  0.00     0.104 C 
ATOM      5  C   UNL     1       1.069   2.462  -2.028  1.00  0.00     0.030 C 
ATOM      6  C   UNL     1       0.095   0.523  -0.757  1.00  0.00     0.056 A 
ATOM      7  C   UNL     1      -0.678   1.057   0.282  1.00  0.00     0.145 A 
ATOM      8  C   UNL     1      -1.840   0.353   0.700  1.00  0.00     0.036 A 
ATOM      9  C   UNL     1      -2.724   0.917   1.788  1.00  0.00     0.052 C 
ATOM     10  C   UNL     1      -2.135  -0.919   0.130  1.00  0.00     0.152 A 
ATOM     11  C   UNL     1      -1.293  -1.463  -0.874  1.00  0.00     0.103 A 
ATOM     12  C   UNL     1      -0.205  -0.696  -1.300  1.00  0.00     0.143 A 
ATOM     13  O   UNL     1       0.683  -1.038  -2.297  1.00  0.00    -0.483 OA
ATOM     14  C   UNL     1       1.609   0.015  -2.538  1.00  0.00     0.218 C 
ATOM     15  C   UNL     1       3.001  -0.550  -2.608  1.00  0.00     0.065 C 
ATOM     16  C   UNL     1       3.828  -0.597  -1.559  1.00  0.00     0.129 C 
ENDROOT
BRANCH   1  17
ATOM     17  C   UNL     1       4.019  -0.321   0.894  1.00  0.00     0.104 C 
ATOM     18  C   UNL     1       3.630   0.295   2.212  1.00  0.00     0.087 C 
BRANCH  17  19
ATOM     19  O   UNL     1       4.986  -1.329   0.909  1.00  0.00    -0.512 OA
ATOM     20  H   UNL     1       5.439  -1.622   1.766  1.00  0.00     0.293 HD
ENDBRANCH  17  19
ENDBRANCH   1  17
BRANCH  16  21
ATOM     21  O   UNL     1       5.064  -1.236  -1.688  1.00  0.00    -0.507 OA
ATOM     22  H   UNL     1       5.351  -1.685  -2.550  1.00  0.00     0.293 HD
ENDBRANCH  16  21
BRANCH   7  23
ATOM     23  O   UNL     1      -0.296   2.271   0.865  1.00  0.00    -0.426 OA
BRANCH  23  24
ATOM     24  C   UNL     1       0.046   2.406   2.216  1.00  0.00     0.308 C 
ATOM     25  C   UNL     1       0.347   3.757   2.767  1.00  0.00     0.139 C 
ATOM     26  O   UNL     1       0.101   1.399   2.973  1.00  0.00    -0.252 OA
ENDBRANCH  23  24
ENDBRANCH   7  23
BRANCH  11  27
ATOM     27  C   UNL     1      -1.505  -2.809  -1.467  1.00  0.00     0.167 C 
ATOM     28  C   UNL     1      -2.869  -3.353  -1.755  1.00  0.00     0.094 C 
ATOM     29  O   UNL     1      -0.505  -3.525  -1.742  1.00  0.00    -0.294 OA
ENDBRANCH  11  27
BRANCH  10  30
ATOM     30  O   UNL     1      -3.225  -1.663   0.597  1.00  0.00    -0.425 OA
BRANCH  30  31
ATOM     31  C   UNL     1      -4.550  -1.375   0.246  1.00  0.00     0.308 C 
ATOM     32  C   UNL     1      -5.654  -2.203   0.808  1.00  0.00     0.139 C 
ATOM     33  O   UNL     1      -4.814  -0.463  -0.584  1.00  0.00    -0.252 OA
ENDBRANCH  30  31
ENDBRANCH  10  30
TORSDOF 8
