REMARK SMILES CC(=O)Oc1c(C)c(OC(C)=O)c2c(c1C(C)=O)O[C@@H]1C=C(O)[C@@H](C(C)=O)C(=O)[C@@]21C
REMARK SMILES IDX 22 1 21 2 20 3 19 4 14 5 15 6 5 7 6 8 7 9 8 10 13 11 30 12
REMARK SMILES IDX 31 13 28 14 29 15 24 16 23 17 25 19 26 20 27 21 16 22 17 23
REMARK SMILES IDX 18 24 9 25 10 26 11 27 12 28 4 29 2 30 1 31 3 32
REMARK H PARENT 23 18
ROOT
ATOM      1  C   UNL     1      -3.936  -1.422  -1.104  1.00  0.00     0.110 C 
ATOM      2  C   UNL     1      -2.795  -2.147  -1.124  1.00  0.00     0.061 C 
ATOM      3  C   UNL     1      -1.658  -1.627  -0.312  1.00  0.00     0.218 C 
ATOM      4  O   UNL     1      -0.372  -2.212  -0.432  1.00  0.00    -0.483 OA
ATOM      5  C   UNL     1       0.526  -1.230  -0.023  1.00  0.00     0.142 A 
ATOM      6  C   UNL     1       1.873  -1.413   0.296  1.00  0.00     0.103 A 
ATOM      7  C   UNL     1       2.625  -0.267   0.673  1.00  0.00     0.152 A 
ATOM      8  C   UNL     1       1.998   1.005   0.766  1.00  0.00     0.036 A 
ATOM      9  C   UNL     1       2.805   2.197   1.213  1.00  0.00     0.052 C 
ATOM     10  C   UNL     1       0.643   1.156   0.375  1.00  0.00     0.145 A 
ATOM     11  C   UNL     1      -0.085   0.010   0.052  1.00  0.00     0.056 A 
ATOM     12  C   UNL     1      -1.441  -0.129  -0.580  1.00  0.00     0.100 C 
ATOM     13  C   UNL     1      -1.302   0.223  -2.084  1.00  0.00     0.029 C 
ATOM     14  C   UNL     1      -2.671   0.542  -0.017  1.00  0.00     0.165 C 
ATOM     15  O   UNL     1      -2.597   1.592   0.602  1.00  0.00    -0.297 OA
ATOM     16  C   UNL     1      -4.036  -0.093  -0.328  1.00  0.00     0.189 C 
ENDROOT
BRANCH   1  17
ATOM     17  O   UNL     1      -5.058  -1.871  -1.800  1.00  0.00    -0.511 OA
ATOM     18  H   UNL     1      -5.048  -2.736  -2.327  1.00  0.00     0.293 HD
ENDBRANCH   1  17
BRANCH  16  19
ATOM     19  C   UNL     1      -4.812  -0.313   0.949  1.00  0.00     0.147 C 
ATOM     20  C   UNL     1      -6.124   0.372   1.193  1.00  0.00     0.089 C 
ATOM     21  O   UNL     1      -4.369  -1.063   1.806  1.00  0.00    -0.299 OA
ENDBRANCH  16  19
BRANCH   6  22
ATOM     22  C   UNL     1       2.447  -2.778   0.277  1.00  0.00     0.167 C 
ATOM     23  C   UNL     1       3.353  -3.269   1.364  1.00  0.00     0.094 C 
ATOM     24  O   UNL     1       2.146  -3.564  -0.661  1.00  0.00    -0.294 OA
ENDBRANCH   6  22
BRANCH  10  25
ATOM     25  O   UNL     1       0.024   2.408   0.302  1.00  0.00    -0.426 OA
BRANCH  25  26
ATOM     26  C   UNL     1       0.448   3.425  -0.559  1.00  0.00     0.308 C 
ATOM     27  C   UNL     1      -0.213   4.759  -0.497  1.00  0.00     0.139 C 
ATOM     28  O   UNL     1       1.330   3.204  -1.433  1.00  0.00    -0.252 OA
ENDBRANCH  25  26
ENDBRANCH  10  25
BRANCH   7  29
ATOM     29  O   UNL     1       3.996  -0.362   0.941  1.00  0.00    -0.425 OA
BRANCH  29  30
ATOM     30  C   UNL     1       4.936  -0.743  -0.023  1.00  0.00     0.308 C 
ATOM     31  C   UNL     1       6.366  -0.896   0.367  1.00  0.00     0.139 C 
ATOM     32  O   UNL     1       4.596  -0.902  -1.227  1.00  0.00    -0.252 OA
ENDBRANCH  29  30
ENDBRANCH   7  29
TORSDOF 7
