REMARK SMILES O=C([O-])c1[nH]c(=O)nc(O)c1F
REMARK SMILES IDX 9 1 8 2 6 3 7 4 5 5 4 6 11 7 12 8 10 10 2 12 1 13 3 14
REMARK H PARENT 5 9 10 11
ROOT
ATOM      1  C   UNL     1      -1.595  -0.218  -0.275  1.00  0.00     0.254 A 
ATOM      2  N   UNL     1      -1.533   1.061  -0.721  1.00  0.00    -0.155 NA
ATOM      3  C   UNL     1      -0.366   1.753  -0.712  1.00  0.00     0.348 A 
ATOM      4  O   UNL     1      -0.341   2.940  -1.133  1.00  0.00    -0.246 OA
ATOM      5  N   UNL     1       0.772   1.168  -0.249  1.00  0.00    -0.302 N 
ATOM      6  C   UNL     1       0.769  -0.117   0.213  1.00  0.00     0.107 A 
ATOM      7  C   UNL     1      -0.438  -0.842   0.206  1.00  0.00     0.210 A 
ATOM      8  F   UNL     1      -0.497  -2.123   0.653  1.00  0.00    -0.199 F 
ATOM      9  H   UNL     1       1.658   1.724  -0.253  1.00  0.00     0.172 HD
ENDROOT
BRANCH   1  10
ATOM     10  O   UNL     1      -2.815  -0.890  -0.303  1.00  0.00    -0.491 OA
ATOM     11  H   UNL     1      -2.908  -1.846   0.020  1.00  0.00     0.295 HD
ENDBRANCH   1  10
BRANCH   6  12
ATOM     12  C   UNL     1       2.029  -0.722   0.709  1.00  0.00     0.091 C 
ATOM     13  O   UNL     1       2.055  -1.905   1.141  1.00  0.00    -0.543 OA
ATOM     14  O   UNL     1       3.207   0.016   0.705  1.00  0.00    -0.543 OA
ENDBRANCH   6  12
TORSDOF 2
