REMARK SMILES Cn1ncc2c(Nc3ccccc3Cl)[nH]c(=Nc3ccccc3Cl)nc21
REMARK SMILES IDX 15 1 6 2 5 3 4 4 3 5 2 6 1 7 26 8 25 9 16 10 7 12 8 14 9 15
REMARK SMILES IDX 13 16 10 17 12 18 11 19 14 20 17 21 18 22 19 23 23 24 20 25
REMARK SMILES IDX 22 26 21 27 24 28
REMARK H PARENT 15 11 7 13
ROOT
ATOM      1  N   UNL     1       0.015  -1.488   0.707  1.00  0.00    -0.310 N 
ATOM      2  C   UNL     1      -1.137  -0.919   0.230  1.00  0.00     0.123 A 
ATOM      3  C   UNL     1      -1.004   0.181  -0.621  1.00  0.00     0.080 A 
ATOM      4  C   UNL     1      -1.878   0.964  -1.356  1.00  0.00     0.149 A 
ATOM      5  N   UNL     1      -1.154   1.873  -2.057  1.00  0.00    -0.179 NA
ATOM      6  N   UNL     1       0.131   1.688  -1.774  1.00  0.00    -0.250 N 
ATOM      7  C   UNL     1       1.226   2.420  -2.395  1.00  0.00     0.176 C 
ATOM      8  C   UNL     1       0.230   0.657  -0.922  1.00  0.00     0.165 A 
ATOM      9  N   UNL     1       1.363   0.098  -0.442  1.00  0.00    -0.193 NA
ATOM     10  C   UNL     1       1.254  -0.983   0.392  1.00  0.00     0.230 A 
ATOM     11  H   UNL     1      -0.054  -2.319   1.337  1.00  0.00     0.171 HD
ENDROOT
BRANCH   2  12
ATOM     12  N   UNL     1      -2.412  -1.479   0.584  1.00  0.00    -0.340 N 
ATOM     13  H   UNL     1      -2.464  -2.509   0.751  1.00  0.00     0.168 HD
BRANCH  12  14
ATOM     14  C   UNL     1      -3.630  -0.724   0.677  1.00  0.00     0.058 A 
ATOM     15  C   UNL     1      -4.774  -1.202   0.023  1.00  0.00     0.027 A 
ATOM     16  C   UNL     1      -3.713   0.461   1.442  1.00  0.00     0.064 A 
ATOM     17  C   UNL     1      -5.975  -0.489   0.086  1.00  0.00     0.002 A 
ATOM     18  C   UNL     1      -4.921   1.168   1.498  1.00  0.00     0.023 A 
ATOM     19  C   UNL     1      -6.046   0.698   0.817  1.00  0.00     0.002 A 
ATOM     20  Cl  UNL     1      -2.355   1.052   2.392  1.00  0.00    -0.082 Cl
ENDBRANCH  12  14
ENDBRANCH   2  12
BRANCH  10  21
ATOM     21  N   UNL     1       2.319  -1.557   0.874  1.00  0.00    -0.212 NA
BRANCH  21  22
ATOM     22  C   UNL     1       3.663  -1.106   0.651  1.00  0.00     0.086 A 
ATOM     23  C   UNL     1       4.572  -1.972   0.029  1.00  0.00     0.030 A 
ATOM     24  C   UNL     1       4.102   0.162   1.091  1.00  0.00     0.066 A 
ATOM     25  C   UNL     1       5.890  -1.569  -0.199  1.00  0.00     0.002 A 
ATOM     26  C   UNL     1       5.425   0.558   0.857  1.00  0.00     0.023 A 
ATOM     27  C   UNL     1       6.314  -0.302   0.209  1.00  0.00     0.002 A 
ATOM     28  Cl  UNL     1       3.047   1.244   1.994  1.00  0.00    -0.082 Cl
ENDBRANCH  21  22
ENDBRANCH  10  21
TORSDOF 4
