REMARK SMILES Cc1nn(-c2ccccc2)nc1C(=O)Nc1ccc2n[nH]cc2c1
REMARK SMILES IDX 15 1 13 2 14 3 16 5 21 6 22 7 20 8 23 9 19 10 24 11 18 12
REMARK SMILES IDX 17 13 12 15 11 16 2 17 4 18 3 19 1 20 5 21 6 22 10 23 7 24
REMARK SMILES IDX 9 25 8 26
REMARK H PARENT 15 4 21 14
ROOT
ATOM      1  N   UNL     1       1.529  -0.116   1.034  1.00  0.00    -0.321 N 
ATOM      2  C   UNL     1       0.573   0.499   0.158  1.00  0.00     0.278 C 
ATOM      3  O   UNL     1       0.921   1.464  -0.575  1.00  0.00    -0.267 OA
ATOM      4  H   UNL     1       1.185  -0.485   1.948  1.00  0.00     0.170 HD
ENDROOT
BRANCH   1   5
ATOM      5  C   UNL     1       2.947  -0.113   0.796  1.00  0.00     0.042 A 
ATOM      6  N   UNL     1       6.942  -0.129  -1.344  1.00  0.00    -0.285 N 
ATOM      7  C   UNL     1       5.663  -0.073  -1.778  1.00  0.00     0.114 A 
ATOM      8  N   UNL     1       6.980  -0.191  -0.017  1.00  0.00    -0.176 NA
ATOM      9  C   UNL     1       4.854  -0.098  -0.667  1.00  0.00     0.022 A 
ATOM     10  C   UNL     1       5.702  -0.171   0.401  1.00  0.00     0.092 A 
ATOM     11  C   UNL     1       3.471  -0.072  -0.519  1.00  0.00     0.038 A 
ATOM     12  C   UNL     1       5.230  -0.230   1.707  1.00  0.00     0.033 A 
ATOM     13  C   UNL     1       3.835  -0.206   1.900  1.00  0.00     0.028 A 
ATOM     14  H   UNL     1       7.791  -0.128  -1.952  1.00  0.00     0.189 HD
ENDBRANCH   1   5
BRANCH   2  15
ATOM     15  C   UNL     1      -0.837   0.070   0.146  1.00  0.00     0.174 A 
ATOM     16  N   UNL     1      -1.839   0.828  -0.337  1.00  0.00    -0.143 NA
ATOM     17  C   UNL     1      -1.388  -1.133   0.559  1.00  0.00     0.093 A 
ATOM     18  N   UNL     1      -2.948   0.114  -0.200  1.00  0.00    -0.151 N 
ATOM     19  N   UNL     1      -2.713  -1.075   0.339  1.00  0.00    -0.153 NA
ATOM     20  C   UNL     1      -0.696  -2.325   1.137  1.00  0.00     0.071 C 
BRANCH  18  21
ATOM     21  C   UNL     1      -4.253   0.574  -0.594  1.00  0.00     0.086 A 
ATOM     22  C   UNL     1      -4.419   1.850  -1.163  1.00  0.00     0.030 A 
ATOM     23  C   UNL     1      -5.383  -0.246  -0.417  1.00  0.00     0.030 A 
ATOM     24  C   UNL     1      -5.689   2.294  -1.546  1.00  0.00     0.002 A 
ATOM     25  C   UNL     1      -6.650   0.203  -0.802  1.00  0.00     0.002 A 
ATOM     26  C   UNL     1      -6.803   1.472  -1.365  1.00  0.00     0.000 A 
ENDBRANCH  18  21
ENDBRANCH   2  15
TORSDOF 3
