REMARK SMILES O=C([O-])CCc1cccnc1
REMARK SMILES IDX 4 1 2 2 1 3 3 4 5 5 6 6 7 7 11 8 8 9 10 10 9 11
REMARK H PARENT
ROOT
ATOM      1  C   UNL     1      -1.764   0.742  -0.241  1.00  0.00     0.057 C 
ENDROOT
BRANCH   1   2
ATOM      2  C   UNL     1      -3.181   0.632  -0.708  1.00  0.00     0.042 C 
ATOM      3  O   UNL     1      -4.075   0.214   0.073  1.00  0.00    -0.550 OA
ATOM      4  O   UNL     1      -3.506   0.944  -2.022  1.00  0.00    -0.550 OA
ENDBRANCH   1   2
BRANCH   1   5
ATOM      5  C   UNL     1      -1.013  -0.567  -0.494  1.00  0.00     0.043 C 
BRANCH   5   6
ATOM      6  C   UNL     1       0.414  -0.456  -0.029  1.00  0.00    -0.029 A 
ATOM      7  C   UNL     1       1.411   0.024  -0.891  1.00  0.00     0.007 A 
ATOM      8  C   UNL     1       0.762  -0.777   1.292  1.00  0.00     0.114 A 
ATOM      9  C   UNL     1       2.725   0.151  -0.436  1.00  0.00     0.020 A 
ATOM     10  N   UNL     1       2.049  -0.643   1.712  1.00  0.00    -0.264 NA
ATOM     11  C   UNL     1       3.028  -0.193   0.883  1.00  0.00     0.111 A 
ENDBRANCH   5   6
ENDBRANCH   1   5
TORSDOF 3
