REMARK SMILES CCCOc1nc2c(c(=O)n(C)c(=O)n2C)n1C
REMARK SMILES IDX 3 1 2 2 1 3 4 4 5 5 6 6 17 7 7 8 8 9 15 10 9 11 13 12 11 13
REMARK SMILES IDX 18 14 16 15 10 16 14 17 12 18
REMARK H PARENT
ROOT
ATOM      1  C   UNL     1       3.351  -0.124   0.548  1.00  0.00     0.233 C 
ENDROOT
BRANCH   1   2
ATOM      2  C   UNL     1       3.594   1.034  -0.424  1.00  0.00     0.038 C 
ATOM      3  C   UNL     1       4.856   0.805  -1.250  1.00  0.00     0.007 C 
ENDBRANCH   1   2
BRANCH   1   4
ATOM      4  O   UNL     1       2.193   0.125   1.341  1.00  0.00    -0.465 OA
BRANCH   4   5
ATOM      5  C   UNL     1       0.888  -0.009   0.854  1.00  0.00     0.298 A 
ATOM      6  N   UNL     1       0.598  -0.442  -0.402  1.00  0.00    -0.176 NA
ATOM      7  N   UNL     1      -0.209   0.275   1.599  1.00  0.00    -0.291 N 
ATOM      8  C   UNL     1      -0.750  -0.414  -0.416  1.00  0.00     0.171 A 
ATOM      9  C   UNL     1      -1.237   0.010   0.774  1.00  0.00     0.155 A 
ATOM     10  N   UNL     1      -1.561  -0.771  -1.448  1.00  0.00    -0.279 N 
ATOM     11  C   UNL     1      -2.608   0.088   0.985  1.00  0.00     0.282 A 
ATOM     12  C   UNL     1      -2.924  -0.719  -1.247  1.00  0.00     0.332 A 
ATOM     13  N   UNL     1      -3.447  -0.261  -0.049  1.00  0.00    -0.261 N 
ATOM     14  C   UNL     1      -0.253   0.741   2.982  1.00  0.00     0.155 C 
ATOM     15  C   UNL     1      -0.996  -1.276  -2.707  1.00  0.00     0.157 C 
ATOM     16  O   UNL     1      -3.064   0.462   2.100  1.00  0.00    -0.267 OA
ATOM     17  O   UNL     1      -3.703  -1.101  -2.167  1.00  0.00    -0.247 OA
ATOM     18  C   UNL     1      -4.906  -0.227   0.149  1.00  0.00     0.159 C 
ENDBRANCH   4   5
ENDBRANCH   1   4
TORSDOF 3
