REMARK SMILES COc1cc(OC)cc([C@]2(C#N)CC[N@H+](C)CC2)c1
REMARK SMILES IDX 14 1 15 2 16 3 17 4 13 5 10 6 18 7 9 9 19 10 8 11 3 12 5 13
REMARK SMILES IDX 4 14 2 15 1 16 6 17 7 18 11 19 12 20
REMARK H PARENT 15 8
ROOT
ATOM      1  C   UNL     1       2.204   1.813   1.436  1.00  0.00     0.264 C 
ATOM      2  N   UNL     1       3.571   1.460   0.997  1.00  0.00    -0.337 N 
ATOM      3  C   UNL     1       4.517   1.612   2.115  1.00  0.00     0.332 C 
ATOM      4  C   UNL     1       3.618   0.077   0.477  1.00  0.00     0.264 C 
ATOM      5  C   UNL     1       1.211   1.700   0.270  1.00  0.00     0.089 C 
ATOM      6  C   UNL     1       1.172   0.257  -0.302  1.00  0.00     0.093 C 
ATOM      7  C   UNL     1       2.631  -0.116  -0.692  1.00  0.00     0.089 C 
ATOM      8  H   UNL     1       3.868   2.121   0.239  1.00  0.00     0.347 HD
ENDROOT
BRANCH   6   9
ATOM      9  C   UNL     1       0.484  -0.724   0.677  1.00  0.00    -0.020 A 
ATOM     10  C   UNL     1       1.042  -1.976   1.029  1.00  0.00     0.052 A 
ATOM     11  C   UNL     1      -0.800  -0.414   1.180  1.00  0.00     0.052 A 
ATOM     12  C   UNL     1       0.383  -2.841   1.922  1.00  0.00     0.122 A 
ATOM     13  C   UNL     1      -1.465  -1.276   2.071  1.00  0.00     0.122 A 
ATOM     14  C   UNL     1      -0.860  -2.476   2.440  1.00  0.00     0.092 A 
BRANCH  12  15
ATOM     15  O   UNL     1       0.928  -4.073   2.318  1.00  0.00    -0.497 OA
ATOM     16  C   UNL     1       2.205  -4.558   1.918  1.00  0.00     0.278 C 
ENDBRANCH  12  15
BRANCH  13  17
ATOM     17  O   UNL     1      -2.728  -0.977   2.606  1.00  0.00    -0.497 OA
ATOM     18  C   UNL     1      -3.456   0.216   2.338  1.00  0.00     0.278 C 
ENDBRANCH  13  17
ENDBRANCH   6   9
BRANCH   6  19
ATOM     19  C   UNL     1       0.370   0.268  -1.542  1.00  0.00     0.074 C 
ATOM     20  N   UNL     1      -0.261   0.278  -2.512  1.00  0.00    -0.197 NA
ENDBRANCH   6  19
TORSDOF 4
