REMARK SMILES COC(=O)c1cncc(C)c1
REMARK SMILES IDX 3 1 4 2 2 3 1 4 5 5 6 6 11 7 7 8 9 9 8 10 10 11
REMARK H PARENT
ROOT
ATOM      1  C   UNL     1       1.604   0.505   0.044  1.00  0.00     0.339 C 
ATOM      2  O   UNL     1       1.680   1.751   0.227  1.00  0.00    -0.246 OA
ENDROOT
BRANCH   1   3
ATOM      3  O   UNL     1       2.771  -0.254  -0.098  1.00  0.00    -0.465 OA
ATOM      4  C   UNL     1       4.071   0.320  -0.047  1.00  0.00     0.282 C 
ENDBRANCH   1   3
BRANCH   1   5
ATOM      5  C   UNL     1       0.282  -0.158  -0.018  1.00  0.00     0.078 A 
ATOM      6  C   UNL     1       0.187  -1.544  -0.221  1.00  0.00     0.126 A 
ATOM      7  C   UNL     1      -0.905   0.581   0.119  1.00  0.00     0.022 A 
ATOM      8  N   UNL     1      -1.030  -2.146  -0.288  1.00  0.00    -0.264 NA
ATOM      9  C   UNL     1      -2.149  -0.062   0.066  1.00  0.00    -0.032 A 
ATOM     10  C   UNL     1      -2.186  -1.444  -0.156  1.00  0.00     0.114 A 
ATOM     11  C   UNL     1      -3.420   0.727   0.172  1.00  0.00     0.046 C 
ENDBRANCH   1   5
TORSDOF 2
