REMARK SMILES CCN(CC)c1nc(Cl)nc(=Nc2ccc3cc(-c4ccccc4)c(=O)oc3c2)[nH]1
REMARK SMILES IDX 30 1 6 2 7 3 8 4 9 5 10 6 11 7 3 9 2 10 1 11 4 12 5 13 12 14
REMARK SMILES IDX 13 15 14 16 29 17 15 18 28 19 16 20 27 21 17 22 25 23 18 24
REMARK SMILES IDX 26 25 19 26 20 27 24 28 21 29 23 30 22 31
REMARK H PARENT 30 8
ROOT
ATOM      1  N   UNL     1       3.565  -0.173   0.532  1.00  0.00    -0.294 N 
ATOM      2  C   UNL     1       4.485   0.014  -0.462  1.00  0.00     0.208 A 
ATOM      3  N   UNL     1       4.051   0.122  -1.747  1.00  0.00    -0.183 NA
ATOM      4  C   UNL     1       2.731   0.049  -2.041  1.00  0.00     0.228 A 
ATOM      5  Cl  UNL     1       2.195   0.187  -3.701  1.00  0.00    -0.041 Cl
ATOM      6  N   UNL     1       1.828  -0.132  -1.050  1.00  0.00    -0.182 NA
ATOM      7  C   UNL     1       2.236  -0.235   0.242  1.00  0.00     0.232 A 
ATOM      8  H   UNL     1       3.857  -0.278   1.528  1.00  0.00     0.173 HD
ENDROOT
BRANCH   2   9
ATOM      9  N   UNL     1       5.907   0.092  -0.181  1.00  0.00    -0.343 N 
BRANCH   9  10
ATOM     10  C   UNL     1       6.869   0.034  -1.294  1.00  0.00     0.116 C 
ATOM     11  C   UNL     1       7.019  -1.398  -1.797  1.00  0.00     0.027 C 
ENDBRANCH   9  10
BRANCH   9  12
ATOM     12  C   UNL     1       6.424   0.256   1.188  1.00  0.00     0.116 C 
ATOM     13  C   UNL     1       6.129   1.657   1.715  1.00  0.00     0.027 C 
ENDBRANCH   9  12
ENDBRANCH   2   9
BRANCH   7  14
ATOM     14  N   UNL     1       1.380  -0.434   1.203  1.00  0.00    -0.213 NA
BRANCH  14  15
ATOM     15  C   UNL     1      -0.053  -0.477   1.088  1.00  0.00     0.071 A 
ATOM     16  C   UNL     1      -0.765  -1.368   1.902  1.00  0.00     0.029 A 
ATOM     17  C   UNL     1      -0.760   0.405   0.248  1.00  0.00     0.076 A 
ATOM     18  C   UNL     1      -2.161  -1.424   1.846  1.00  0.00     0.014 A 
ATOM     19  C   UNL     1      -2.157   0.355   0.189  1.00  0.00     0.140 A 
ATOM     20  C   UNL     1      -2.861  -0.567   0.987  1.00  0.00     0.018 A 
ATOM     21  O   UNL     1      -2.816   1.183  -0.616  1.00  0.00    -0.422 OA
ATOM     22  C   UNL     1      -4.255  -0.595   0.904  1.00  0.00     0.028 A 
ATOM     23  C   UNL     1      -4.142   1.185  -0.720  1.00  0.00     0.344 A 
ATOM     24  C   UNL     1      -4.920   0.282   0.035  1.00  0.00     0.068 A 
ATOM     25  O   UNL     1      -4.691   2.018  -1.489  1.00  0.00    -0.246 OA
BRANCH  24  26
ATOM     26  C   UNL     1      -6.401   0.248  -0.064  1.00  0.00    -0.011 A 
ATOM     27  C   UNL     1      -7.190   0.229   1.101  1.00  0.00     0.009 A 
ATOM     28  C   UNL     1      -7.036   0.212  -1.319  1.00  0.00     0.009 A 
ATOM     29  C   UNL     1      -8.585   0.188   1.010  1.00  0.00     0.001 A 
ATOM     30  C   UNL     1      -8.431   0.170  -1.404  1.00  0.00     0.001 A 
ATOM     31  C   UNL     1      -9.205   0.160  -0.241  1.00  0.00     0.000 A 
ENDBRANCH  24  26
ENDBRANCH  14  15
ENDBRANCH   7  14
TORSDOF 6
