REMARK SMILES Cc1ccc(NC(=O)Nc2nc3ccccc3s2)cc1NC(=O)Nc1nc2ccccc2s1
REMARK SMILES IDX 1 1 2 2 3 3 4 4 5 5 19 6 20 7 21 8 22 9 24 10 23 12 25 14
REMARK SMILES IDX 26 15 33 16 27 17 32 18 28 19 31 20 29 21 30 22 6 23 7 24
REMARK SMILES IDX 9 25 8 27 10 29 11 30 18 31 12 32 17 33 13 34 16 35 14 36
REMARK SMILES IDX 15 37
REMARK H PARENT 21 11 24 13 6 26 9 28
ROOT
ATOM      1  C   UNL     1       1.355   2.374   4.107  1.00  0.00     0.046 C 
ATOM      2  C   UNL     1       0.525   1.696   3.051  1.00  0.00    -0.027 A 
ATOM      3  C   UNL     1      -0.823   1.405   3.312  1.00  0.00     0.008 A 
ATOM      4  C   UNL     1      -1.615   0.776   2.350  1.00  0.00     0.026 A 
ATOM      5  C   UNL     1      -1.080   0.449   1.095  1.00  0.00     0.044 A 
ATOM      6  C   UNL     1       0.269   0.726   0.834  1.00  0.00     0.052 A 
ATOM      7  C   UNL     1       1.082   1.346   1.800  1.00  0.00     0.047 A 
ENDROOT
BRANCH   7   8
ATOM      8  N   UNL     1       2.452   1.663   1.493  1.00  0.00    -0.307 N 
ATOM      9  C   UNL     1       3.330   0.775   0.785  1.00  0.00     0.325 C 
ATOM     10  N   UNL     1       4.598   1.261   0.318  1.00  0.00    -0.283 N 
ATOM     11  H   UNL     1       2.852   2.561   1.848  1.00  0.00     0.171 HD
ATOM     12  O   UNL     1       2.987  -0.420   0.580  1.00  0.00    -0.248 OA
ATOM     13  H   UNL     1       4.772   2.290   0.360  1.00  0.00     0.174 HD
BRANCH  10  14
ATOM     14  C   UNL     1       5.638   0.440  -0.234  1.00  0.00     0.191 A 
ATOM     15  N   UNL     1       6.724   0.969  -0.847  1.00  0.00    -0.220 NA
ATOM     16  S   UNL     1       5.713  -1.256  -0.146  1.00  0.00    -0.097 S 
ATOM     17  C   UNL     1       7.582  -0.005  -1.245  1.00  0.00     0.084 A 
ATOM     18  C   UNL     1       7.189  -1.299  -0.943  1.00  0.00     0.056 A 
ATOM     19  C   UNL     1       8.787   0.229  -1.911  1.00  0.00     0.030 A 
ATOM     20  C   UNL     1       7.964  -2.406  -1.281  1.00  0.00     0.021 A 
ATOM     21  C   UNL     1       9.586  -0.872  -2.266  1.00  0.00     0.002 A 
ATOM     22  C   UNL     1       9.177  -2.184  -1.951  1.00  0.00     0.002 A 
ENDBRANCH  10  14
ENDBRANCH   7   8
BRANCH   5  23
ATOM     23  N   UNL     1      -1.870  -0.210   0.090  1.00  0.00    -0.308 N 
ATOM     24  C   UNL     1      -3.270   0.029  -0.124  1.00  0.00     0.325 C 
ATOM     25  N   UNL     1      -3.999  -0.816  -1.026  1.00  0.00    -0.283 N 
ATOM     26  H   UNL     1      -1.379  -0.842  -0.583  1.00  0.00     0.171 HD
ATOM     27  O   UNL     1      -3.842   0.999   0.444  1.00  0.00    -0.248 OA
ATOM     28  H   UNL     1      -3.478  -1.567  -1.531  1.00  0.00     0.174 HD
BRANCH  25  29
ATOM     29  C   UNL     1      -5.407  -0.701  -1.272  1.00  0.00     0.191 A 
ATOM     30  N   UNL     1      -6.218   0.178  -0.630  1.00  0.00    -0.220 NA
ATOM     31  S   UNL     1      -6.246  -1.669  -2.381  1.00  0.00    -0.097 S 
ATOM     32  C   UNL     1      -7.499   0.050  -1.056  1.00  0.00     0.084 A 
ATOM     33  C   UNL     1      -7.706  -0.923  -2.023  1.00  0.00     0.056 A 
ATOM     34  C   UNL     1      -8.569   0.811  -0.582  1.00  0.00     0.030 A 
ATOM     35  C   UNL     1      -8.967  -1.179  -2.556  1.00  0.00     0.021 A 
ATOM     36  C   UNL     1      -9.852   0.571  -1.102  1.00  0.00     0.002 A 
ATOM     37  C   UNL     1     -10.050  -0.420  -2.085  1.00  0.00     0.002 A 
ENDBRANCH  25  29
ENDBRANCH   5  23
TORSDOF 4
