REMARK SMILES CCCNc1cc(=[SH2])nc(N)[nH]1
REMARK SMILES IDX 4 1 5 3 12 4 10 5 6 6 9 7 7 8 11 10 8 13 3 16 2 17 1 18
REMARK H PARENT 4 2 12 9 11 11 11 12 8 14 8 15
ROOT
ATOM      1  N   UNL     1      -0.912   0.274  -0.534  1.00  0.00    -0.371 N 
ATOM      2  H   UNL     1      -1.349   1.208  -0.705  1.00  0.00     0.162 HD
ENDROOT
BRANCH   1   3
ATOM      3  C   UNL     1       0.494   0.243  -0.222  1.00  0.00     0.108 A 
ATOM      4  N   UNL     1       1.181   1.417  -0.120  1.00  0.00    -0.313 N 
ATOM      5  C   UNL     1       2.512   1.433   0.172  1.00  0.00     0.199 A 
ATOM      6  C   UNL     1       1.177  -0.968  -0.023  1.00  0.00     0.079 A 
ATOM      7  N   UNL     1       3.178   0.266   0.368  1.00  0.00    -0.210 NA
ATOM      8  C   UNL     1       2.541  -0.929   0.277  1.00  0.00     0.089 A 
ATOM      9  H   UNL     1       0.680   2.322  -0.268  1.00  0.00     0.171 HD
BRANCH   5  10
ATOM     10  N   UNL     1       3.213   2.673   0.275  1.00  0.00    -0.369 N 
ATOM     11  H   UNL     1       4.232   2.684   0.499  1.00  0.00     0.159 HD
ATOM     12  H   UNL     1       2.718   3.580   0.128  1.00  0.00     0.159 HD
ENDBRANCH   5  10
BRANCH   8  13
ATOM     13  S   UNL     1       3.363  -2.296   0.512  1.00  0.00    -0.190 S 
ATOM     14  H   UNL     1       4.637  -1.884   0.899  1.00  0.00     0.095 HD
ATOM     15  H   UNL     1       2.805  -2.816   1.678  1.00  0.00     0.095 HD
ENDBRANCH   8  13
ENDBRANCH   1   3
BRANCH   1  16
ATOM     16  C   UNL     1      -1.741  -0.930  -0.635  1.00  0.00     0.114 C 
BRANCH  16  17
ATOM     17  C   UNL     1      -3.206  -0.587  -0.934  1.00  0.00     0.018 C 
ATOM     18  C   UNL     1      -3.900   0.064   0.263  1.00  0.00     0.006 C 
ENDBRANCH  16  17
ENDBRANCH   1  16
TORSDOF 5
