REMARK SMILES O=C(c1ccc(O)cc1)c1ccc(C(=O)c2ccc(O)cc2)cc1
REMARK SMILES IDX 10 1 11 2 12 3 13 4 23 5 24 6 2 7 1 8 3 9 4 10 9 11 5 12
REMARK SMILES IDX 8 13 6 14 7 15 14 17 15 18 16 19 17 20 22 21 18 22 21 23
REMARK SMILES IDX 19 24 20 25
REMARK H PARENT 7 16 20 26
ROOT
ATOM      1  C   UNL     1      -1.301   0.196   0.869  1.00  0.00     0.023 A 
ATOM      2  C   UNL     1      -0.131   0.867   1.259  1.00  0.00     0.013 A 
ATOM      3  C   UNL     1       1.124   0.292   1.037  1.00  0.00     0.013 A 
ATOM      4  C   UNL     1       1.233  -0.967   0.421  1.00  0.00     0.023 A 
ATOM      5  C   UNL     1       0.061  -1.653   0.063  1.00  0.00     0.013 A 
ATOM      6  C   UNL     1      -1.194  -1.078   0.284  1.00  0.00     0.013 A 
ENDROOT
BRANCH   1   7
ATOM      7  C   UNL     1      -2.627   0.809   1.125  1.00  0.00     0.193 C 
ATOM      8  O   UNL     1      -2.772   1.545   2.139  1.00  0.00    -0.289 OA
BRANCH   7   9
ATOM      9  C   UNL     1      -3.790   0.590   0.230  1.00  0.00     0.023 A 
ATOM     10  C   UNL     1      -5.093   0.589   0.757  1.00  0.00     0.016 A 
ATOM     11  C   UNL     1      -3.616   0.424  -1.157  1.00  0.00     0.016 A 
ATOM     12  C   UNL     1      -6.196   0.400  -0.080  1.00  0.00     0.047 A 
ATOM     13  C   UNL     1      -4.721   0.235  -1.992  1.00  0.00     0.047 A 
ATOM     14  C   UNL     1      -6.013   0.220  -1.457  1.00  0.00     0.115 A 
BRANCH  14  15
ATOM     15  O   UNL     1      -7.104   0.030  -2.301  1.00  0.00    -0.508 OA
ATOM     16  H   UNL     1      -8.053   0.015  -1.944  1.00  0.00     0.293 HD
ENDBRANCH  14  15
ENDBRANCH   7   9
ENDBRANCH   1   7
BRANCH   4  17
ATOM     17  C   UNL     1       2.558  -1.595   0.196  1.00  0.00     0.193 C 
ATOM     18  O   UNL     1       2.656  -2.850   0.270  1.00  0.00    -0.289 OA
BRANCH  17  19
ATOM     19  C   UNL     1       3.771  -0.799  -0.114  1.00  0.00     0.023 A 
ATOM     20  C   UNL     1       3.688   0.387  -0.865  1.00  0.00     0.016 A 
ATOM     21  C   UNL     1       5.034  -1.252   0.307  1.00  0.00     0.016 A 
ATOM     22  C   UNL     1       4.841   1.118  -1.165  1.00  0.00     0.047 A 
ATOM     23  C   UNL     1       6.186  -0.519   0.006  1.00  0.00     0.047 A 
ATOM     24  C   UNL     1       6.092   0.670  -0.729  1.00  0.00     0.115 A 
BRANCH  24  25
ATOM     25  O   UNL     1       7.232   1.409  -1.034  1.00  0.00    -0.508 OA
ATOM     26  H   UNL     1       8.153   1.110  -0.734  1.00  0.00     0.293 HD
ENDBRANCH  24  25
ENDBRANCH  17  19
ENDBRANCH   4  17
TORSDOF 6
