REMARK SMILES O=C([O-])CSc1nc2ccccc2s1
REMARK SMILES IDX 4 1 2 2 1 3 3 4 5 5 6 6 7 7 14 8 8 9 13 10 9 11 12 12 10 13
REMARK SMILES IDX 11 14
REMARK H PARENT
ROOT
ATOM      1  C   UNL     1       3.361  -0.599   0.538  1.00  0.00     0.130 C 
ENDROOT
BRANCH   1   2
ATOM      2  C   UNL     1       3.560   0.869   0.343  1.00  0.00     0.052 C 
ATOM      3  O   UNL     1       4.236   1.532   1.173  1.00  0.00    -0.549 OA
ATOM      4  O   UNL     1       2.983   1.513  -0.744  1.00  0.00    -0.549 OA
ENDBRANCH   1   2
BRANCH   1   5
ATOM      5  S   UNL     1       2.234  -0.915   1.939  1.00  0.00    -0.089 SA
BRANCH   5   6
ATOM      6  C   UNL     1       0.751  -0.456   1.046  1.00  0.00     0.151 A 
ATOM      7  N   UNL     1       0.050  -1.325   0.279  1.00  0.00    -0.230 NA
ATOM      8  S   UNL     1       0.061   1.089   1.079  1.00  0.00    -0.108 S 
ATOM      9  C   UNL     1      -1.030  -0.715  -0.273  1.00  0.00     0.083 A 
ATOM     10  C   UNL     1      -1.186   0.623   0.057  1.00  0.00     0.055 A 
ATOM     11  C   UNL     1      -1.947  -1.344  -1.116  1.00  0.00     0.030 A 
ATOM     12  C   UNL     1      -2.245   1.386  -0.428  1.00  0.00     0.021 A 
ATOM     13  C   UNL     1      -3.025  -0.596  -1.621  1.00  0.00     0.002 A 
ATOM     14  C   UNL     1      -3.173   0.763  -1.278  1.00  0.00     0.002 A 
ENDBRANCH   5   6
ENDBRANCH   1   5
TORSDOF 3
