REMARK SMILES O=C1COc2cccnc2N1
REMARK SMILES IDX 1 1 2 2 3 3 4 4 5 5 6 6 7 7 8 8 9 9 10 10 11 11
REMARK H PARENT 11 12
ROOT
ATOM      1  O   UNL     1      -3.379   1.347   0.269  1.00  0.00    -0.271 OA
ATOM      2  C   UNL     1      -2.292   0.726   0.128  1.00  0.00     0.263 C 
ATOM      3  C   UNL     1      -2.287  -0.777   0.075  1.00  0.00     0.329 C 
ATOM      4  O   UNL     1      -1.000  -1.316   0.396  1.00  0.00    -0.480 OA
ATOM      5  C   UNL     1       0.195  -0.626   0.158  1.00  0.00     0.162 A 
ATOM      6  C   UNL     1       1.420  -1.295   0.189  1.00  0.00     0.052 A 
ATOM      7  C   UNL     1       2.601  -0.586  -0.043  1.00  0.00     0.024 A 
ATOM      8  C   UNL     1       2.538   0.788  -0.292  1.00  0.00     0.114 A 
ATOM      9  N   UNL     1       1.336   1.426  -0.303  1.00  0.00    -0.235 NA
ATOM     10  C   UNL     1       0.173   0.753  -0.087  1.00  0.00     0.175 A 
ATOM     11  N   UNL     1      -1.073   1.451  -0.061  1.00  0.00    -0.305 N 
ATOM     12  H   UNL     1      -1.092   2.492  -0.148  1.00  0.00     0.171 HD
ENDROOT
TORSDOF 0
