REMARK SMILES O=[N+]([O-])c1ccc([C@@H]2C=C(c3ccccc3)Nc3ccccc3S2)cc1
REMARK SMILES IDX 24 1 23 2 18 3 19 4 20 5 22 6 21 7 17 8 10 10 11 11 12 12
REMARK SMILES IDX 16 13 13 14 15 15 14 16 9 17 8 19 7 21 6 22 25 23 5 24 26 25
REMARK SMILES IDX 4 26 2 27 1 28 3 29
REMARK H PARENT 17 9
REMARK Flexibility Score:   84.900
ROOT
ATOM      1  S   UNL     1       0.459  -1.592   1.551  1.00  0.00    -0.111 SA
ENDROOT
BRANCH   1   2
ATOM      2  C   UNL     1      -0.911  -2.513   0.876  1.00  0.00     0.032 A 
ATOM      3  C   UNL     1      -2.080  -1.841   0.493  1.00  0.00     0.052 A 
ATOM      4  C   UNL     1      -3.155  -2.577  -0.028  1.00  0.00     0.027 A 
ATOM      5  C   UNL     1      -3.041  -3.958  -0.215  1.00  0.00     0.002 A 
ATOM      6  C   UNL     1      -0.791  -3.893   0.672  1.00  0.00     0.017 A 
ATOM      7  C   UNL     1      -1.857  -4.614   0.129  1.00  0.00     0.001 A 
BRANCH   3   8
ATOM      8  N   UNL     1      -2.225  -0.429   0.698  1.00  0.00    -0.354 N 
ATOM      9  H   UNL     1      -3.148  -0.129   1.085  1.00  0.00     0.167 HD
BRANCH   8  10
ATOM     10  C   UNL     1      -1.400   0.610   0.118  1.00  0.00     0.043 C 
BRANCH  10  11
ATOM     11  C   UNL     1      -2.034   1.936  -0.100  1.00  0.00    -0.002 A 
ATOM     12  C   UNL     1      -1.387   3.126   0.286  1.00  0.00     0.010 A 
ATOM     13  C   UNL     1      -3.313   2.013  -0.680  1.00  0.00     0.010 A 
ATOM     14  C   UNL     1      -2.004   4.364   0.083  1.00  0.00     0.001 A 
ATOM     15  C   UNL     1      -3.925   3.254  -0.881  1.00  0.00     0.001 A 
ATOM     16  C   UNL     1      -3.271   4.428  -0.501  1.00  0.00     0.000 A 
ENDBRANCH  10  11
BRANCH  10  17
ATOM     17  C   UNL     1      -0.092   0.462  -0.210  1.00  0.00     0.019 CG0
ATOM     18  G   UNL     1       0.760  -0.776  -0.054  1.00  0.00     0.000 G0
ENDBRANCH  10  17
ENDBRANCH   8  10
ENDBRANCH   3   8
ENDBRANCH   1   2
BRANCH   1  19
ATOM     19  C   UNL     1       0.760  -0.776  -0.054  1.00  0.00     0.106 CG0
ATOM     20  G   UNL     1      -0.092   0.462  -0.210  1.00  0.00     0.000 G0
BRANCH  19  21
ATOM     21  C   UNL     1       2.231  -0.427  -0.144  1.00  0.00    -0.030 A 
ATOM     22  C   UNL     1       3.050  -1.049  -1.100  1.00  0.00     0.012 A 
ATOM     23  C   UNL     1       2.803   0.507   0.738  1.00  0.00     0.012 A 
ATOM     24  C   UNL     1       4.410  -0.738  -1.180  1.00  0.00     0.086 A 
ATOM     25  C   UNL     1       4.163   0.819   0.658  1.00  0.00     0.086 A 
ATOM     26  C   UNL     1       4.982   0.201  -0.302  1.00  0.00     0.269 A 
BRANCH  26  27
ATOM     27  N   UNL     1       6.382   0.524  -0.382  1.00  0.00     0.062 N 
ATOM     28  O   UNL     1       7.115  -0.022  -1.232  1.00  0.00    -0.258 OA
ATOM     29  O   UNL     1       6.938   1.443   0.479  1.00  0.00    -0.258 OA
ENDBRANCH  26  27
ENDBRANCH  19  21
ENDBRANCH   1  19
TORSDOF 3
