REMARK SMILES Cc1cc(=S)nc([S-])[nH]1
REMARK SMILES IDX 9 1 2 2 1 3 3 4 4 5 5 6 6 7 7 8 8 9
REMARK H PARENT 9 10
ROOT
ATOM      1  N   UNL     1       0.423  -1.099   0.055  1.00  0.00    -0.366 N 
ATOM      2  C   UNL     1      -0.515  -0.109   0.047  1.00  0.00     0.014 A 
ATOM      3  C   UNL     1      -1.975  -0.452   0.072  1.00  0.00     0.064 C 
ATOM      4  C   UNL     1      -0.108   1.227  -0.051  1.00  0.00     0.061 A 
ATOM      5  C   UNL     1       1.258   1.507  -0.109  1.00  0.00     0.127 A 
ATOM      6  S   UNL     1       1.785   3.051  -0.214  1.00  0.00    -0.058 S 
ATOM      7  N   UNL     1       2.158   0.491  -0.082  1.00  0.00    -0.249 NA
ATOM      8  C   UNL     1       1.751  -0.803  -0.002  1.00  0.00    -0.017 A 
ATOM      9  S   UNL     1       2.978  -2.121   0.022  1.00  0.00    -0.742 S 
ATOM     10  H   UNL     1       0.126  -2.099   0.106  1.00  0.00     0.166 HD
ENDROOT
TORSDOF 0
