REMARK SMILES COc1ccccc1/C=C1\Cc2ccccc2C1=O
REMARK SMILES IDX 3 1 4 2 5 3 6 4 7 5 8 6 2 7 1 8 9 9 10 10 11 11 18 12 12 13
REMARK SMILES IDX 17 14 13 15 16 16 14 17 15 18 19 19
REMARK H PARENT
ROOT
ATOM      1  C   UNL     1      -2.463   0.096  -0.224  1.00  0.00     0.126 A 
ATOM      2  C   UNL     1      -3.578  -0.649  -0.658  1.00  0.00     0.047 A 
ATOM      3  C   UNL     1      -4.134  -1.633   0.165  1.00  0.00     0.004 A 
ATOM      4  C   UNL     1      -3.591  -1.881   1.426  1.00  0.00     0.001 A 
ATOM      5  C   UNL     1      -2.482  -1.155   1.865  1.00  0.00     0.012 A 
ATOM      6  C   UNL     1      -1.899  -0.184   1.038  1.00  0.00     0.017 A 
ENDROOT
BRANCH   1   7
ATOM      7  O   UNL     1      -1.909   1.123  -1.005  1.00  0.00    -0.496 OA
ATOM      8  C   UNL     1      -2.368   1.489  -2.303  1.00  0.00     0.278 C 
ENDBRANCH   1   7
BRANCH   6   9
ATOM      9  C   UNL     1      -0.728   0.562   1.534  1.00  0.00     0.020 C 
BRANCH   9  10
ATOM     10  C   UNL     1       0.481   0.474   0.965  1.00  0.00     0.005 C 
ATOM     11  C   UNL     1       0.859  -0.408  -0.204  1.00  0.00     0.076 C 
ATOM     12  C   UNL     1       1.680   1.150   1.456  1.00  0.00     0.189 C 
ATOM     13  C   UNL     1       2.337  -0.170  -0.309  1.00  0.00    -0.032 A 
ATOM     14  C   UNL     1       2.792   0.724   0.641  1.00  0.00     0.026 A 
ATOM     15  C   UNL     1       3.218  -0.739  -1.231  1.00  0.00     0.005 A 
ATOM     16  C   UNL     1       4.136   1.089   0.721  1.00  0.00     0.012 A 
ATOM     17  C   UNL     1       4.577  -0.386  -1.171  1.00  0.00     0.000 A 
ATOM     18  C   UNL     1       5.035   0.524  -0.199  1.00  0.00     0.001 A 
ATOM     19  O   UNL     1       1.739   1.955   2.423  1.00  0.00    -0.289 OA
ENDBRANCH   9  10
ENDBRANCH   6   9
TORSDOF 3
