REMARK SMILES CCN(CC)C(=O)Cn1ccc(NC(C)=O)nc1=O
REMARK SMILES IDX 8 1 6 2 3 3 7 4 2 5 1 6 4 7 5 8 9 9 10 10 18 11 11 12 17 13
REMARK SMILES IDX 12 14 19 15 13 16 14 17 15 19 16 20
REMARK H PARENT 13 18
ROOT
ATOM      1  C   UNL     1      -0.964  -0.710   0.436  1.00  0.00     0.227 C 
ENDROOT
BRANCH   1   2
ATOM      2  C   UNL     1      -1.686   0.271  -0.458  1.00  0.00     0.242 C 
ATOM      3  N   UNL     1      -3.132   0.320  -0.515  1.00  0.00    -0.342 N 
ATOM      4  O   UNL     1      -1.010   1.087  -1.143  1.00  0.00    -0.273 OA
BRANCH   3   5
ATOM      5  C   UNL     1      -3.963  -0.752   0.054  1.00  0.00     0.116 C 
ATOM      6  C   UNL     1      -4.116  -1.895  -0.945  1.00  0.00     0.027 C 
ENDBRANCH   3   5
BRANCH   3   7
ATOM      7  C   UNL     1      -3.795   1.425  -1.223  1.00  0.00     0.116 C 
ATOM      8  C   UNL     1      -3.758   2.697  -0.383  1.00  0.00     0.027 C 
ENDBRANCH   3   7
ENDBRANCH   1   2
BRANCH   1   9
ATOM      9  N   UNL     1       0.496  -0.633   0.252  1.00  0.00    -0.290 N 
ATOM     10  C   UNL     1       1.230   0.187   1.062  1.00  0.00     0.095 A 
ATOM     11  C   UNL     1       1.119  -1.326  -0.753  1.00  0.00     0.349 A 
ATOM     12  C   UNL     1       2.609   0.296   0.898  1.00  0.00     0.065 A 
ATOM     13  N   UNL     1       2.463  -1.226  -0.920  1.00  0.00    -0.175 NA
ATOM     14  C   UNL     1       3.229  -0.451  -0.110  1.00  0.00     0.139 A 
ATOM     15  O   UNL     1       0.457  -2.059  -1.537  1.00  0.00    -0.246 OA
BRANCH  14  16
ATOM     16  N   UNL     1       4.641  -0.366  -0.356  1.00  0.00    -0.311 N 
ATOM     17  C   UNL     1       5.630  -0.130   0.659  1.00  0.00     0.222 C 
ATOM     18  H   UNL     1       4.977  -0.579  -1.322  1.00  0.00     0.171 HD
ATOM     19  C   UNL     1       7.046   0.141   0.267  1.00  0.00     0.114 C 
ATOM     20  O   UNL     1       5.336  -0.231   1.880  1.00  0.00    -0.275 OA
ENDBRANCH  14  16
ENDBRANCH   1   9
TORSDOF 5
