REMARK SMILES O[C@H](c1cc(C(F)(F)F)nc2c(Cl)cc(Cl)cc12)[C@H]1CCCC[NH2+]1
REMARK SMILES IDX 3 1 4 2 18 3 5 4 17 5 11 6 10 7 15 8 12 9 14 10 16 11 13 12
REMARK SMILES IDX 2 13 19 14 24 15 20 16 23 17 21 18 22 19 1 22 6 24 7 25 8 26
REMARK SMILES IDX 9 27
REMARK H PARENT 24 20 24 21 1 23
ROOT
ATOM      1  C   UNL     1       0.995   0.182   0.773  1.00  0.00    -0.002 A 
ATOM      2  C   UNL     1       1.386   1.535   0.796  1.00  0.00     0.040 A 
ATOM      3  C   UNL     1       1.860  -0.764   0.143  1.00  0.00     0.009 A 
ATOM      4  C   UNL     1       2.618   1.931   0.271  1.00  0.00     0.145 A 
ATOM      5  C   UNL     1       1.535  -2.132  -0.018  1.00  0.00     0.031 A 
ATOM      6  C   UNL     1       3.106  -0.308  -0.369  1.00  0.00     0.090 A 
ATOM      7  N   UNL     1       3.438   1.006  -0.285  1.00  0.00    -0.242 NA
ATOM      8  C   UNL     1       2.431  -3.012  -0.632  1.00  0.00     0.043 A 
ATOM      9  C   UNL     1       3.998  -1.205  -0.979  1.00  0.00     0.068 A 
ATOM     10  C   UNL     1       3.659  -2.551  -1.104  1.00  0.00     0.043 A 
ATOM     11  Cl  UNL     1       2.005  -4.704  -0.821  1.00  0.00    -0.084 Cl
ATOM     12  Cl  UNL     1       5.547  -0.654  -1.606  1.00  0.00    -0.082 Cl
ENDROOT
BRANCH   1  13
ATOM     13  C   UNL     1      -0.359  -0.181   1.390  1.00  0.00     0.203 C 
BRANCH  13  14
ATOM     14  C   UNL     1      -1.551   0.240   0.476  1.00  0.00     0.216 C 
ATOM     15  N   UNL     1      -2.841  -0.097   1.120  1.00  0.00    -0.341 N 
ATOM     16  C   UNL     1      -1.459  -0.441  -0.911  1.00  0.00     0.068 C 
ATOM     17  C   UNL     1      -3.987   0.331   0.302  1.00  0.00     0.260 C 
ATOM     18  C   UNL     1      -2.650  -0.051  -1.790  1.00  0.00     0.012 C 
ATOM     19  C   UNL     1      -3.968  -0.344  -1.074  1.00  0.00     0.062 C 
ATOM     20  H   UNL     1      -2.914   0.390   2.043  1.00  0.00     0.346 HD
ATOM     21  H   UNL     1      -2.902  -1.129   1.290  1.00  0.00     0.346 HD
ENDBRANCH  13  14
BRANCH  13  22
ATOM     22  O   UNL     1      -0.463   0.380   2.679  1.00  0.00    -0.382 OA
ATOM     23  H   UNL     1      -0.750   1.326   2.595  1.00  0.00     0.211 HD
ENDBRANCH  13  22
ENDBRANCH   1  13
BRANCH   4  24
ATOM     24  C   UNL     1       3.034   3.373   0.313  1.00  0.00     0.433 C 
ATOM     25  F   UNL     1       3.061   3.811   1.625  1.00  0.00    -0.165 F 
ATOM     26  F   UNL     1       2.131   4.136  -0.403  1.00  0.00    -0.165 F 
ATOM     27  F   UNL     1       4.293   3.533  -0.238  1.00  0.00    -0.165 F 
ENDBRANCH   4  24
TORSDOF 4
