REMARK SMILES C=C(O)c1c(OC(C)=O)c(C)c(OC(C)=O)c2c1O[C@@H]1CC(O)=C(C(C)=O)C(=O)[C@@]21C
REMARK SMILES IDX 22 1 24 2 28 3 29 4 30 5 31 6 17 7 12 8 10 9 11 10 5 11 4 12
REMARK SMILES IDX 18 13 19 14 20 15 21 16 23 17 25 19 26 20 27 21 13 22 14 23
REMARK SMILES IDX 15 24 16 25 2 26 1 27 3 28 6 30 7 31 8 32 9 33
REMARK H PARENT 23 18 3 29
ROOT
ATOM      1  C   UNL     1       4.180  -0.062   0.944  1.00  0.00     0.110 C 
ATOM      2  C   UNL     1       3.906   0.545  -0.256  1.00  0.00     0.099 C 
ATOM      3  C   UNL     1       2.489   0.634  -0.749  1.00  0.00     0.184 C 
ATOM      4  O   UNL     1       2.223   1.011  -1.922  1.00  0.00    -0.293 OA
ATOM      5  C   UNL     1       1.401   0.294   0.229  1.00  0.00     0.101 C 
ATOM      6  C   UNL     1       1.195   1.482   1.203  1.00  0.00     0.029 C 
ATOM      7  C   UNL     1       0.045  -0.178  -0.214  1.00  0.00     0.056 A 
ATOM      8  C   UNL     1      -0.873   0.417  -1.083  1.00  0.00     0.145 A 
ATOM      9  C   UNL     1      -2.177  -0.137  -1.169  1.00  0.00     0.036 A 
ATOM     10  C   UNL     1      -3.143   0.357  -2.216  1.00  0.00     0.052 C 
ATOM     11  C   UNL     1      -2.567  -1.168  -0.266  1.00  0.00     0.152 A 
ATOM     12  C   UNL     1      -1.631  -1.712   0.648  1.00  0.00     0.101 A 
ATOM     13  C   UNL     1      -0.339  -1.185   0.651  1.00  0.00     0.142 A 
ATOM     14  O   UNL     1       0.713  -1.570   1.477  1.00  0.00    -0.487 OA
ATOM     15  C   UNL     1       1.880  -0.999   0.909  1.00  0.00     0.199 C 
ATOM     16  C   UNL     1       3.102  -0.753   1.786  1.00  0.00     0.122 C 
ENDROOT
BRANCH   1  17
ATOM     17  O   UNL     1       5.477  -0.037   1.455  1.00  0.00    -0.511 OA
ATOM     18  H   UNL     1       5.699  -0.462   2.348  1.00  0.00     0.293 HD
ENDBRANCH   1  17
BRANCH   2  19
ATOM     19  C   UNL     1       4.978   1.157  -1.082  1.00  0.00     0.166 C 
ATOM     20  C   UNL     1       6.340   0.543  -1.207  1.00  0.00     0.094 C 
ATOM     21  O   UNL     1       4.743   2.229  -1.702  1.00  0.00    -0.294 OA
ENDBRANCH   2  19
BRANCH   8  22
ATOM     22  O   UNL     1      -0.482   1.525  -1.843  1.00  0.00    -0.426 OA
BRANCH  22  23
ATOM     23  C   UNL     1      -1.118   2.768  -1.776  1.00  0.00     0.308 C 
ATOM     24  C   UNL     1      -0.708   3.851  -2.714  1.00  0.00     0.139 C 
ATOM     25  O   UNL     1      -1.977   3.007  -0.885  1.00  0.00    -0.252 OA
ENDBRANCH  22  23
ENDBRANCH   8  22
BRANCH  12  26
ATOM     26  C   UNL     1      -1.993  -2.785   1.603  1.00  0.00     0.123 C 
ATOM     27  C   UNL     1      -2.623  -3.887   1.198  1.00  0.00     0.059 C 
BRANCH  26  28
ATOM     28  O   UNL     1      -1.657  -2.662   2.950  1.00  0.00    -0.508 OA
ATOM     29  H   UNL     1      -1.214  -1.825   3.312  1.00  0.00     0.293 HD
ENDBRANCH  26  28
ENDBRANCH  12  26
BRANCH  11  30
ATOM     30  O   UNL     1      -3.880  -1.657  -0.265  1.00  0.00    -0.425 OA
BRANCH  30  31
ATOM     31  C   UNL     1      -4.986  -0.873   0.080  1.00  0.00     0.308 C 
ATOM     32  C   UNL     1      -6.356  -1.443  -0.056  1.00  0.00     0.139 C 
ATOM     33  O   UNL     1      -4.832   0.281   0.566  1.00  0.00    -0.252 OA
ENDBRANCH  30  31
ENDBRANCH  11  30
TORSDOF 8
