REMARK SMILES C=C1S/C(=N\c2c(C)cc(C)cc2C)N(C(=O)c2sc3ccccc3c2Cl)C12CCCCC2
REMARK SMILES IDX 1 1 2 2 3 3 4 4 15 5 28 6 29 7 30 8 31 9 32 10 33 11 5 12
REMARK SMILES IDX 6 13 7 14 13 15 9 16 12 17 10 18 8 19 14 20 11 21 16 22
REMARK SMILES IDX 17 23 18 24 19 25 26 26 20 27 25 28 21 29 24 30 22 31 23 32
REMARK SMILES IDX 27 33
REMARK H PARENT
ROOT
ATOM      1  C   UNL     1       0.727   3.593   1.132  1.00  0.00     0.023 C 
ATOM      2  C   UNL     1       0.651   2.455   0.428  1.00  0.00     0.012 C 
ATOM      3  S   UNL     1       2.187   1.732  -0.131  1.00  0.00    -0.054 SA
ATOM      4  C   UNL     1       1.268   0.217  -0.273  1.00  0.00     0.176 C 
ATOM      5  N   UNL     1      -0.152   0.356  -0.391  1.00  0.00    -0.275 N 
ATOM      6  C   UNL     1      -0.630   1.707   0.004  1.00  0.00     0.081 C 
ATOM      7  C   UNL     1      -1.654   1.573   1.183  1.00  0.00     0.034 C 
ATOM      8  C   UNL     1      -2.557   2.796   1.452  1.00  0.00     0.003 C 
ATOM      9  C   UNL     1      -3.123   3.400   0.161  1.00  0.00     0.000 C 
ATOM     10  C   UNL     1      -2.020   3.692  -0.859  1.00  0.00     0.003 C 
ATOM     11  C   UNL     1      -1.264   2.413  -1.228  1.00  0.00     0.034 C 
ENDROOT
BRANCH   4  12
ATOM     12  N   UNL     1       1.837  -0.952  -0.213  1.00  0.00    -0.224 NA
BRANCH  12  13
ATOM     13  C   UNL     1       3.251  -1.137  -0.079  1.00  0.00     0.072 A 
ATOM     14  C   UNL     1       4.075  -1.220  -1.224  1.00  0.00    -0.025 A 
ATOM     15  C   UNL     1       3.820  -1.255   1.205  1.00  0.00    -0.025 A 
ATOM     16  C   UNL     1       5.460  -1.374  -1.069  1.00  0.00     0.009 A 
ATOM     17  C   UNL     1       5.210  -1.409   1.338  1.00  0.00     0.009 A 
ATOM     18  C   UNL     1       6.029  -1.492   0.206  1.00  0.00    -0.050 A 
ATOM     19  C   UNL     1       3.515  -1.040  -2.609  1.00  0.00     0.047 C 
ATOM     20  C   UNL     1       2.962  -1.142   2.437  1.00  0.00     0.047 C 
ATOM     21  C   UNL     1       7.517  -1.638   0.360  1.00  0.00     0.044 C 
ENDBRANCH  12  13
ENDBRANCH   4  12
BRANCH   5  22
ATOM     22  C   UNL     1      -0.888  -0.614  -1.192  1.00  0.00     0.272 C 
ATOM     23  O   UNL     1      -0.273  -1.289  -2.061  1.00  0.00    -0.268 OA
BRANCH  22  24
ATOM     24  C   UNL     1      -2.306  -0.940  -0.979  1.00  0.00     0.112 A 
ATOM     25  S   UNL     1      -3.467  -0.958  -2.212  1.00  0.00    -0.128 S 
ATOM     26  C   UNL     1      -2.828  -1.578   0.155  1.00  0.00     0.072 A 
ATOM     27  C   UNL     1      -4.656  -1.712  -1.292  1.00  0.00     0.037 A 
ATOM     28  C   UNL     1      -4.162  -1.981  -0.023  1.00  0.00     0.012 A 
ATOM     29  C   UNL     1      -5.920  -2.135  -1.703  1.00  0.00     0.020 A 
ATOM     30  C   UNL     1      -4.963  -2.650   0.909  1.00  0.00     0.011 A 
ATOM     31  C   UNL     1      -6.721  -2.828  -0.785  1.00  0.00     0.002 A 
ATOM     32  C   UNL     1      -6.252  -3.067   0.523  1.00  0.00     0.001 A 
ATOM     33  Cl  UNL     1      -1.881  -1.943   1.596  1.00  0.00    -0.082 Cl
ENDBRANCH  22  24
ENDBRANCH   5  22
TORSDOF 4
