REMARK SMILES S=c1nc[nH]c2c1ncn2C1CCCC1
REMARK SMILES IDX 1 1 2 2 3 3 4 4 5 5 6 6 7 7 8 8 9 9 10 10 11 12 12 13 15 14
REMARK SMILES IDX 13 15 14 16
REMARK H PARENT 5 11
ROOT
ATOM      1  S   UNL     1       4.788   2.011   1.060  1.00  0.00    -0.055 S 
ATOM      2  C   UNL     1       3.804   0.767   0.663  1.00  0.00     0.157 A 
ATOM      3  N   UNL     1       4.285  -0.510   0.627  1.00  0.00    -0.225 NA
ATOM      4  C   UNL     1       3.475  -1.569   0.308  1.00  0.00     0.199 A 
ATOM      5  N   UNL     1       2.154  -1.369   0.014  1.00  0.00    -0.330 N 
ATOM      6  C   UNL     1       1.678  -0.096   0.039  1.00  0.00     0.142 A 
ATOM      7  C   UNL     1       2.462   0.962   0.359  1.00  0.00     0.142 A 
ATOM      8  N   UNL     1       1.744   2.100   0.359  1.00  0.00    -0.232 NA
ATOM      9  C   UNL     1       0.498   1.670   0.021  1.00  0.00     0.202 A 
ATOM     10  N   UNL     1       0.426   0.329  -0.198  1.00  0.00    -0.314 N 
ATOM     11  H   UNL     1       1.545  -2.183  -0.217  1.00  0.00     0.169 HD
ENDROOT
BRANCH  10  12
ATOM     12  C   UNL     1      -0.776  -0.472  -0.480  1.00  0.00     0.090 C 
ATOM     13  C   UNL     1      -1.653   0.172  -1.564  1.00  0.00     0.025 C 
ATOM     14  C   UNL     1      -1.649  -0.605   0.774  1.00  0.00     0.025 C 
ATOM     15  C   UNL     1      -2.924   0.629  -0.868  1.00  0.00     0.002 C 
ATOM     16  C   UNL     1      -3.068  -0.277   0.341  1.00  0.00     0.002 C 
ENDBRANCH  10  12
TORSDOF 1
