REMARK SMILES C1CCCC(N=C2NCCO2)CCC1
REMARK SMILES IDX 5 1 6 2 7 3 8 4 9 5 10 6 11 7 4 9 3 10 2 11 1 12 12 14 13 15
REMARK SMILES IDX 14 16
REMARK H PARENT 8 8
REMARK Flexibility Score:   15.900
ROOT
ATOM      1  C   UNL     1       0.173   0.223   0.520  1.00  0.00     0.111 C 
ENDROOT
BRANCH   1   2
ATOM      2  N   UNL     1       1.598   0.460   0.766  1.00  0.00    -0.232 NA
BRANCH   2   3
ATOM      3  C   UNL     1       2.550  -0.145   0.124  1.00  0.00     0.285 C 
ATOM      4  N   UNL     1       3.916   0.094   0.365  1.00  0.00    -0.337 N 
ATOM      5  C   UNL     1       4.670  -0.759  -0.540  1.00  0.00     0.159 C 
ATOM      6  C   UNL     1       3.605  -1.538  -1.350  1.00  0.00     0.254 C 
ATOM      7  O   UNL     1       2.347  -1.086  -0.862  1.00  0.00    -0.463 OA
ATOM      8  H   UNL     1       4.314   0.762   1.062  1.00  0.00     0.165 HD
ENDBRANCH   2   3
ENDBRANCH   1   2
BRANCH   1   9
ATOM      9  C   UNL     1      -0.256   0.922  -0.797  1.00  0.00     0.027 C 
BRANCH   9  10
ATOM     10  C   UNL     1      -1.313   0.133  -1.608  1.00  0.00     0.002 C 
BRANCH  10  11
ATOM     11  C   UNL     1      -2.761   0.589  -1.356  1.00  0.00     0.000 C 
BRANCH  11  12
ATOM     12  C   UNL     1      -3.523  -0.224  -0.290  1.00  0.00     0.000 CG0
ATOM     13  G   UNL     1      -2.791  -0.461   1.043  1.00  0.00     0.000 G0
ENDBRANCH  11  12
ENDBRANCH  10  11
ENDBRANCH   9  10
ENDBRANCH   1   9
BRANCH   1  14
ATOM     14  C   UNL     1      -0.604   0.721   1.761  1.00  0.00     0.027 C 
BRANCH  14  15
ATOM     15  C   UNL     1      -2.136   0.806   1.633  1.00  0.00     0.002 C 
BRANCH  15  16
ATOM     16  C   UNL     1      -2.791  -0.461   1.043  1.00  0.00     0.000 CG0
ATOM     17  G   UNL     1      -3.523  -0.224  -0.290  1.00  0.00     0.000 G0
ENDBRANCH  15  16
ENDBRANCH  14  15
ENDBRANCH   1  14
TORSDOF 2
