REMARK SMILES Nc1cc(Nc2ccc(Br)cc2)nc(N)n1
REMARK SMILES IDX 2 1 3 2 4 3 13 4 14 5 16 6 1 7 5 10 6 12 7 13 12 14 8 15
REMARK SMILES IDX 11 16 9 17 10 18 15 19
REMARK H PARENT 1 8 1 9 5 11 15 20 15 21
ROOT
ATOM      1  C   UNL     1      -2.522   0.923  -0.195  1.00  0.00     0.131 A 
ATOM      2  C   UNL     1      -1.193   0.544  -0.406  1.00  0.00     0.093 A 
ATOM      3  C   UNL     1      -0.846  -0.807  -0.257  1.00  0.00     0.138 A 
ATOM      4  N   UNL     1      -1.814  -1.711   0.051  1.00  0.00    -0.196 NA
ATOM      5  C   UNL     1      -3.102  -1.327   0.251  1.00  0.00     0.223 A 
ATOM      6  N   UNL     1      -3.446  -0.018   0.130  1.00  0.00    -0.196 NA
ENDROOT
BRANCH   1   7
ATOM      7  N   UNL     1      -2.916   2.289  -0.328  1.00  0.00    -0.383 N 
ATOM      8  H   UNL     1      -2.221   3.027  -0.578  1.00  0.00     0.158 HD
ATOM      9  H   UNL     1      -3.910   2.566  -0.172  1.00  0.00     0.158 HD
ENDBRANCH   1   7
BRANCH   3  10
ATOM     10  N   UNL     1       0.494  -1.269  -0.491  1.00  0.00    -0.340 N 
ATOM     11  H   UNL     1       0.612  -2.248  -0.838  1.00  0.00     0.168 HD
BRANCH  10  12
ATOM     12  C   UNL     1       1.679  -0.484  -0.273  1.00  0.00     0.040 A 
ATOM     13  C   UNL     1       1.751   0.458   0.770  1.00  0.00     0.027 A 
ATOM     14  C   UNL     1       2.811  -0.709  -1.071  1.00  0.00     0.027 A 
ATOM     15  C   UNL     1       2.924   1.188   0.981  1.00  0.00     0.018 A 
ATOM     16  C   UNL     1       3.983   0.024  -0.858  1.00  0.00     0.018 A 
ATOM     17  C   UNL     1       4.039   0.976   0.165  1.00  0.00     0.018 A 
ATOM     18  Br  UNL     1       5.641   1.973   0.455  1.00  0.00    -0.051 Br
ENDBRANCH  10  12
ENDBRANCH   3  10
BRANCH   5  19
ATOM     19  N   UNL     1      -4.092  -2.297   0.584  1.00  0.00    -0.368 N 
ATOM     20  H   UNL     1      -3.834  -3.305   0.677  1.00  0.00     0.159 HD
ATOM     21  H   UNL     1      -5.084  -2.009   0.738  1.00  0.00     0.159 HD
ENDBRANCH   5  19
TORSDOF 4
