REMARK SMILES Cc1ccc(NC(=O)Nc2ccccc2C(N)=O)cc1
REMARK SMILES IDX 10 1 11 2 12 3 13 4 14 5 15 6 9 7 6 8 7 9 8 11 5 13 2 14
REMARK SMILES IDX 3 15 20 16 4 17 19 18 1 19 16 20 17 21 18 22
REMARK H PARENT 6 10 9 12 17 23 17 24
ROOT
ATOM      1  C   UNL     1      -2.635  -0.569   0.071  1.00  0.00     0.055 A 
ATOM      2  C   UNL     1      -2.647  -1.858   0.633  1.00  0.00     0.027 A 
ATOM      3  C   UNL     1      -3.780  -2.335   1.294  1.00  0.00     0.002 A 
ATOM      4  C   UNL     1      -4.918  -1.536   1.395  1.00  0.00     0.001 A 
ATOM      5  C   UNL     1      -4.928  -0.258   0.834  1.00  0.00     0.016 A 
ATOM      6  C   UNL     1      -3.795   0.242   0.166  1.00  0.00     0.063 A 
ENDROOT
BRANCH   1   7
ATOM      7  N   UNL     1      -1.487  -0.127  -0.674  1.00  0.00    -0.307 N 
ATOM      8  N   UNL     1       0.952   0.015  -1.101  1.00  0.00    -0.308 N 
ATOM      9  C   UNL     1      -0.137  -0.300  -0.219  1.00  0.00     0.323 C 
ATOM     10  H   UNL     1       0.737   0.103  -2.120  1.00  0.00     0.171 HD
ATOM     11  O   UNL     1       0.090  -0.733   0.944  1.00  0.00    -0.248 OA
ATOM     12  H   UNL     1      -1.640   0.386  -1.571  1.00  0.00     0.171 HD
BRANCH   8  13
ATOM     13  C   UNL     1       2.327   0.094  -0.690  1.00  0.00     0.042 A 
ATOM     14  C   UNL     1       5.041   0.300   0.039  1.00  0.00    -0.051 A 
ATOM     15  C   UNL     1       4.682  -0.196  -1.223  1.00  0.00     0.005 A 
ATOM     16  C   UNL     1       4.036   0.686   0.938  1.00  0.00     0.005 A 
ATOM     17  C   UNL     1       3.336  -0.284  -1.589  1.00  0.00     0.026 A 
ATOM     18  C   UNL     1       2.689   0.597   0.573  1.00  0.00     0.026 A 
ATOM     19  C   UNL     1       6.484   0.359   0.446  1.00  0.00     0.044 C 
ENDBRANCH   8  13
ENDBRANCH   1   7
BRANCH   6  20
ATOM     20  C   UNL     1      -3.824   1.623  -0.374  1.00  0.00     0.250 C 
ATOM     21  N   UNL     1      -5.020   2.164  -0.941  1.00  0.00    -0.366 N 
ATOM     22  O   UNL     1      -2.791   2.343  -0.322  1.00  0.00    -0.269 OA
ATOM     23  H   UNL     1      -5.039   3.153  -1.275  1.00  0.00     0.159 HD
ATOM     24  H   UNL     1      -5.867   1.572  -1.085  1.00  0.00     0.159 HD
ENDBRANCH   6  20
TORSDOF 3
