REMARK SMILES C=C(O)C1=C(O)[C@]2(C)c3c(OC(C)=O)c(C)c(OC(C)=O)c(C(C)=O)c3O[C@@H]2CC1=O
REMARK SMILES IDX 4 1 5 2 7 3 8 4 9 5 10 6 15 7 16 8 17 9 22 10 26 11 27 12
REMARK SMILES IDX 28 13 29 14 30 15 31 16 2 17 1 18 3 19 6 21 11 23 12 24
REMARK SMILES IDX 13 25 14 26 23 27 24 28 25 29 18 30 19 31 20 32 21 33
REMARK H PARENT 3 20 6 22
ROOT
ATOM      1  C   UNL     1       3.654  -0.305  -0.029  1.00  0.00     0.097 C 
ATOM      2  C   UNL     1       2.478   0.362  -0.030  1.00  0.00     0.121 C 
ATOM      3  C   UNL     1       1.394   0.078  -1.080  1.00  0.00     0.095 C 
ATOM      4  C   UNL     1       1.474   1.162  -2.172  1.00  0.00     0.029 C 
ATOM      5  C   UNL     1       0.002   0.048  -0.479  1.00  0.00     0.055 A 
ATOM      6  C   UNL     1      -0.713   1.068   0.171  1.00  0.00     0.145 A 
ATOM      7  C   UNL     1      -2.013   0.784   0.663  1.00  0.00     0.036 A 
ATOM      8  C   UNL     1      -2.783   1.828   1.433  1.00  0.00     0.052 C 
ATOM      9  C   UNL     1      -2.614  -0.470   0.377  1.00  0.00     0.152 A 
ATOM     10  C   UNL     1      -1.920  -1.440  -0.387  1.00  0.00     0.103 A 
ATOM     11  C   UNL     1      -0.610  -1.139  -0.788  1.00  0.00     0.142 A 
ATOM     12  O   UNL     1       0.211  -1.953  -1.534  1.00  0.00    -0.487 OA
ATOM     13  C   UNL     1       1.483  -1.354  -1.749  1.00  0.00     0.199 C 
ATOM     14  C   UNL     1       2.557  -2.284  -1.175  1.00  0.00     0.128 C 
ATOM     15  C   UNL     1       3.787  -1.514  -0.857  1.00  0.00     0.173 C 
ATOM     16  O   UNL     1       4.916  -1.927  -1.234  1.00  0.00    -0.294 OA
ENDROOT
BRANCH   1  17
ATOM     17  C   UNL     1       4.809   0.150   0.783  1.00  0.00     0.122 C 
ATOM     18  C   UNL     1       5.513  -0.713   1.520  1.00  0.00     0.059 C 
BRANCH  17  19
ATOM     19  O   UNL     1       5.165   1.500   0.761  1.00  0.00    -0.508 OA
ATOM     20  H   UNL     1       5.947   1.858   1.298  1.00  0.00     0.293 HD
ENDBRANCH  17  19
ENDBRANCH   1  17
BRANCH   2  21
ATOM     21  O   UNL     1       2.247   1.393   0.887  1.00  0.00    -0.510 OA
ATOM     22  H   UNL     1       2.842   1.581   1.683  1.00  0.00     0.293 HD
ENDBRANCH   2  21
BRANCH   6  23
ATOM     23  O   UNL     1      -0.141   2.337   0.317  1.00  0.00    -0.426 OA
BRANCH  23  24
ATOM     24  C   UNL     1      -0.675   3.491  -0.265  1.00  0.00     0.308 C 
ATOM     25  C   UNL     1      -0.049   4.812   0.024  1.00  0.00     0.139 C 
ATOM     26  O   UNL     1      -1.630   3.418  -1.085  1.00  0.00    -0.252 OA
ENDBRANCH  23  24
ENDBRANCH   6  23
BRANCH  10  27
ATOM     27  C   UNL     1      -2.556  -2.734  -0.755  1.00  0.00     0.167 C 
ATOM     28  C   UNL     1      -2.211  -3.452  -2.024  1.00  0.00     0.094 C 
ATOM     29  O   UNL     1      -3.389  -3.269   0.025  1.00  0.00    -0.294 OA
ENDBRANCH  10  27
BRANCH   9  30
ATOM     30  O   UNL     1      -3.917  -0.733   0.815  1.00  0.00    -0.425 OA
BRANCH  30  31
ATOM     31  C   UNL     1      -4.196  -1.207   2.101  1.00  0.00     0.308 C 
ATOM     32  C   UNL     1      -5.612  -1.416   2.516  1.00  0.00     0.139 C 
ATOM     33  O   UNL     1      -3.265  -1.423   2.925  1.00  0.00    -0.252 OA
ENDBRANCH  30  31
ENDBRANCH   9  30
TORSDOF 8
