REMARK SMILES O=C([O-])c1ccc(N2CCCCC2)cc1O
REMARK SMILES IDX 4 1 5 2 15 3 6 4 14 5 7 6 2 7 1 8 3 9 16 10 8 12 9 13 13 14
REMARK SMILES IDX 10 15 12 16 11 17
REMARK H PARENT 16 11
ROOT
ATOM      1  C   UNL     1       1.257  -0.496  -3.812  1.00  0.00     0.039 A 
ATOM      2  C   UNL     1       0.446  -1.581  -3.431  1.00  0.00     0.016 A 
ATOM      3  C   UNL     1       1.114   0.734  -3.129  1.00  0.00     0.126 A 
ATOM      4  C   UNL     1      -0.483  -1.450  -2.397  1.00  0.00     0.027 A 
ATOM      5  C   UNL     1       0.177   0.855  -2.092  1.00  0.00     0.072 A 
ATOM      6  C   UNL     1      -0.624  -0.234  -1.718  1.00  0.00     0.040 A 
ENDROOT
BRANCH   1   7
ATOM      7  C   UNL     1       2.234  -0.674  -4.916  1.00  0.00     0.075 C 
ATOM      8  O   UNL     1       2.975   0.274  -5.288  1.00  0.00    -0.545 OA
ATOM      9  O   UNL     1       2.346  -1.900  -5.562  1.00  0.00    -0.545 OA
ENDBRANCH   1   7
BRANCH   3  10
ATOM     10  O   UNL     1       1.898   1.835  -3.473  1.00  0.00    -0.507 OA
ATOM     11  H   UNL     1       1.809   2.724  -2.994  1.00  0.00     0.293 HD
ENDBRANCH   3  10
BRANCH   6  12
ATOM     12  N   UNL     1      -1.588  -0.106  -0.655  1.00  0.00    -0.371 N 
ATOM     13  C   UNL     1      -1.527  -1.010   0.500  1.00  0.00     0.116 C 
ATOM     14  C   UNL     1      -2.416   1.102  -0.544  1.00  0.00     0.116 C 
ATOM     15  C   UNL     1      -2.940  -1.385   0.954  1.00  0.00     0.021 C 
ATOM     16  C   UNL     1      -3.830   0.735  -0.084  1.00  0.00     0.021 C 
ATOM     17  C   UNL     1      -3.789  -0.129   1.181  1.00  0.00     0.004 C 
ENDBRANCH   6  12
TORSDOF 3
