REMARK SMILES S=c1[nH]cnc2sc(Nc3ccccc3)nc12
REMARK SMILES IDX 1 1 2 2 3 3 4 4 5 5 6 6 7 7 8 8 16 9 17 10 9 12 10 14 11 15
REMARK SMILES IDX 15 16 12 17 14 18 13 19
REMARK H PARENT 3 11 9 13
ROOT
ATOM      1  S   UNL     1       2.420   2.769  -0.334  1.00  0.00    -0.058 S 
ATOM      2  C   UNL     1       3.115   1.313  -0.039  1.00  0.00     0.133 A 
ATOM      3  N   UNL     1       4.476   1.179  -0.055  1.00  0.00    -0.336 N 
ATOM      4  C   UNL     1       5.074  -0.029   0.189  1.00  0.00     0.199 A 
ATOM      5  N   UNL     1       4.320  -1.134   0.455  1.00  0.00    -0.226 NA
ATOM      6  C   UNL     1       2.973  -1.011   0.473  1.00  0.00     0.150 A 
ATOM      7  S   UNL     1       1.840  -2.208   0.772  1.00  0.00    -0.076 S 
ATOM      8  C   UNL     1       0.554  -1.114   0.576  1.00  0.00     0.189 A 
ATOM      9  N   UNL     1       0.983   0.139   0.288  1.00  0.00    -0.215 NA
ATOM     10  C   UNL     1       2.339   0.186   0.233  1.00  0.00     0.137 A 
ATOM     11  H   UNL     1       5.081   2.007  -0.256  1.00  0.00     0.168 HD
ENDROOT
BRANCH   8  12
ATOM     12  N   UNL     1      -0.825  -1.502   0.707  1.00  0.00    -0.331 N 
ATOM     13  H   UNL     1      -0.975  -2.512   0.932  1.00  0.00     0.169 HD
BRANCH  12  14
ATOM     14  C   UNL     1      -2.011  -0.684   0.567  1.00  0.00     0.040 A 
ATOM     15  C   UNL     1      -1.980   0.696   0.265  1.00  0.00     0.026 A 
ATOM     16  C   UNL     1      -3.265  -1.300   0.744  1.00  0.00     0.026 A 
ATOM     17  C   UNL     1      -3.169   1.423   0.146  1.00  0.00     0.002 A 
ATOM     18  C   UNL     1      -4.449  -0.568   0.623  1.00  0.00     0.002 A 
ATOM     19  C   UNL     1      -4.401   0.793   0.324  1.00  0.00     0.000 A 
ENDBRANCH  12  14
ENDBRANCH   8  12
TORSDOF 2
