REMARK SMILES CCOC(=O)/C(C#N)=C/c1cccc([N+](=O)[O-])c1
REMARK SMILES IDX 6 1 4 2 5 3 3 4 2 5 1 6 7 7 8 8 9 9 10 10 11 11 18 12 12 13
REMARK SMILES IDX 14 14 13 15 15 16 16 17 17 18
REMARK H PARENT
ROOT
ATOM      1  C   UNL     1       0.763  -0.396  -0.271  1.00  0.00     0.137 C 
ENDROOT
BRANCH   1   2
ATOM      2  C   UNL     1       2.200  -0.632  -0.007  1.00  0.00     0.348 C 
ATOM      3  O   UNL     1       2.581  -1.082   1.109  1.00  0.00    -0.245 OA
BRANCH   2   4
ATOM      4  O   UNL     1       3.138  -0.353  -1.010  1.00  0.00    -0.462 OA
BRANCH   4   5
ATOM      5  C   UNL     1       4.546  -0.496  -0.833  1.00  0.00     0.230 C 
ATOM      6  C   UNL     1       5.103   0.654  -0.003  1.00  0.00     0.049 C 
ENDBRANCH   4   5
ENDBRANCH   2   4
ENDBRANCH   1   2
BRANCH   1   7
ATOM      7  C   UNL     1       0.393   0.110  -1.573  1.00  0.00     0.107 C 
ATOM      8  N   UNL     1       0.099   0.514  -2.617  1.00  0.00    -0.192 NA
ENDBRANCH   1   7
BRANCH   1   9
ATOM      9  C   UNL     1      -0.169  -0.704   0.654  1.00  0.00     0.035 C 
BRANCH   9  10
ATOM     10  C   UNL     1      -1.627  -0.497   0.485  1.00  0.00    -0.017 A 
ATOM     11  C   UNL     1      -2.507  -1.514   0.881  1.00  0.00     0.008 A 
ATOM     12  C   UNL     1      -2.151   0.721   0.015  1.00  0.00     0.093 A 
ATOM     13  C   UNL     1      -3.887  -1.339   0.762  1.00  0.00     0.008 A 
ATOM     14  C   UNL     1      -3.540   0.906  -0.108  1.00  0.00     0.270 A 
ATOM     15  C   UNL     1      -4.402  -0.140   0.266  1.00  0.00     0.085 A 
BRANCH  14  16
ATOM     16  N   UNL     1      -4.067   2.151  -0.603  1.00  0.00     0.062 N 
ATOM     17  O   UNL     1      -5.299   2.326  -0.701  1.00  0.00    -0.258 OA
ATOM     18  O   UNL     1      -3.221   3.169  -0.980  1.00  0.00    -0.258 OA
ENDBRANCH  14  16
ENDBRANCH   9  10
ENDBRANCH   1   9
TORSDOF 7
