REMARK SMILES Cc1c(Cl)cccc1N=c1[nH]cccc1C(=O)OC[C@H](O)CO
REMARK SMILES IDX 18 1 16 2 17 3 15 4 11 5 12 6 10 7 13 8 14 9 9 11 8 12 7 13
REMARK SMILES IDX 2 14 6 15 3 16 5 17 1 18 4 19 19 20 20 21 21 22 22 24 23 25
REMARK H PARENT 11 10 21 23 23 26
ROOT
ATOM      1  O   UNL     1       2.587   0.426   1.567  1.00  0.00    -0.459 OA
ENDROOT
BRANCH   1   2
ATOM      2  C   UNL     1       1.266   0.203   1.158  1.00  0.00     0.342 C 
ATOM      3  O   UNL     1       0.732  -0.923   1.356  1.00  0.00    -0.246 OA
BRANCH   2   4
ATOM      4  C   UNL     1       0.508   1.301   0.495  1.00  0.00     0.102 A 
ATOM      5  N   UNL     1      -1.460   2.216  -0.555  1.00  0.00    -0.346 N 
ATOM      6  C   UNL     1      -0.829   3.402  -0.762  1.00  0.00     0.084 A 
ATOM      7  C   UNL     1      -0.843   1.166   0.077  1.00  0.00     0.145 A 
ATOM      8  C   UNL     1       0.486   3.580  -0.346  1.00  0.00     0.019 A 
ATOM      9  C   UNL     1       1.154   2.530   0.276  1.00  0.00     0.021 A 
ATOM     10  H   UNL     1      -2.429   2.130  -0.930  1.00  0.00     0.167 HD
BRANCH   7  11
ATOM     11  N   UNL     1      -1.466   0.034   0.267  1.00  0.00    -0.230 NA
BRANCH  11  12
ATOM     12  C   UNL     1      -2.847  -0.261   0.001  1.00  0.00     0.070 A 
ATOM     13  C   UNL     1      -3.855   0.541   0.562  1.00  0.00     0.029 A 
ATOM     14  C   UNL     1      -3.200  -1.419  -0.731  1.00  0.00    -0.007 A 
ATOM     15  C   UNL     1      -5.199   0.242   0.346  1.00  0.00     0.004 A 
ATOM     16  C   UNL     1      -4.566  -1.699  -0.959  1.00  0.00     0.046 A 
ATOM     17  C   UNL     1      -5.554  -0.868  -0.419  1.00  0.00     0.021 A 
ATOM     18  C   UNL     1      -2.141  -2.314  -1.326  1.00  0.00     0.048 C 
ATOM     19  Cl  UNL     1      -5.079  -3.083  -1.921  1.00  0.00    -0.084 Cl
ENDBRANCH  11  12
ENDBRANCH   7  11
ENDBRANCH   2   4
ENDBRANCH   1   2
BRANCH   1  20
ATOM     20  C   UNL     1       3.426  -0.590   2.117  1.00  0.00     0.267 C 
BRANCH  20  21
ATOM     21  C   UNL     1       3.918  -1.557   1.023  1.00  0.00     0.177 C 
BRANCH  21  22
ATOM     22  O   UNL     1       4.724  -2.566   1.579  1.00  0.00    -0.387 OA
ATOM     23  H   UNL     1       5.502  -2.127   2.014  1.00  0.00     0.211 HD
ENDBRANCH  21  22
BRANCH  21  24
ATOM     24  C   UNL     1       4.657  -0.839  -0.122  1.00  0.00     0.191 C 
BRANCH  24  25
ATOM     25  O   UNL     1       5.803  -0.177   0.346  1.00  0.00    -0.394 OA
ATOM     26  H   UNL     1       5.520   0.737   0.610  1.00  0.00     0.210 HD
ENDBRANCH  24  25
ENDBRANCH  21  24
ENDBRANCH  20  21
ENDBRANCH   1  20
TORSDOF 9
