REMARK SMILES CSc1ccc(NC(=O)Nc2ccc(C(=O)NCC(=O)[O-])cc2)cc1
REMARK SMILES IDX 14 1 13 2 22 3 12 4 23 5 11 6 15 7 17 8 16 10 18 11 19 12
REMARK SMILES IDX 20 13 21 14 10 15 8 16 7 17 9 19 6 21 5 22 24 23 4 24 25 25
REMARK SMILES IDX 3 26 2 27 1 28
REMARK H PARENT 17 9 10 18 7 20
ROOT
ATOM      1  C   UNL     1      -3.831  -0.026  -0.754  1.00  0.00     0.039 A 
ATOM      2  C   UNL     1      -3.663   1.084   0.092  1.00  0.00     0.016 A 
ATOM      3  C   UNL     1      -2.718  -0.836  -1.040  1.00  0.00     0.016 A 
ATOM      4  C   UNL     1      -2.411   1.370   0.646  1.00  0.00     0.027 A 
ATOM      5  C   UNL     1      -1.468  -0.550  -0.484  1.00  0.00     0.027 A 
ATOM      6  C   UNL     1      -1.300   0.568   0.350  1.00  0.00     0.042 A 
ENDROOT
BRANCH   1   7
ATOM      7  C   UNL     1      -5.149  -0.338  -1.358  1.00  0.00     0.251 C 
ATOM      8  N   UNL     1      -6.372   0.084  -0.735  1.00  0.00    -0.347 N 
ATOM      9  H   UNL     1      -6.348   0.464   0.239  1.00  0.00     0.164 HD
ATOM     10  O   UNL     1      -5.196  -1.002  -2.430  1.00  0.00    -0.269 OA
BRANCH   8  11
ATOM     11  C   UNL     1      -7.659  -0.071  -1.412  1.00  0.00     0.169 C 
BRANCH  11  12
ATOM     12  C   UNL     1      -8.772   0.452  -0.559  1.00  0.00     0.061 C 
ATOM     13  O   UNL     1      -9.386  -0.319   0.224  1.00  0.00    -0.548 OA
ATOM     14  O   UNL     1      -9.097   1.801  -0.593  1.00  0.00    -0.548 OA
ENDBRANCH  11  12
ENDBRANCH   8  11
ENDBRANCH   1   7
BRANCH   6  15
ATOM     15  N   UNL     1      -0.030   0.876   0.950  1.00  0.00    -0.308 N 
ATOM     16  C   UNL     1       1.239   0.643   0.318  1.00  0.00     0.323 C 
ATOM     17  N   UNL     1       2.447   0.813   1.074  1.00  0.00    -0.308 N 
ATOM     18  H   UNL     1      -0.029   1.372   1.870  1.00  0.00     0.171 HD
ATOM     19  O   UNL     1       1.294   0.363  -0.911  1.00  0.00    -0.248 OA
ATOM     20  H   UNL     1       2.384   1.326   1.983  1.00  0.00     0.171 HD
BRANCH  17  21
ATOM     21  C   UNL     1       3.749   0.422   0.607  1.00  0.00     0.042 A 
ATOM     22  C   UNL     1       4.872   1.174   0.986  1.00  0.00     0.027 A 
ATOM     23  C   UNL     1       3.931  -0.733  -0.177  1.00  0.00     0.027 A 
ATOM     24  C   UNL     1       6.150   0.802   0.559  1.00  0.00     0.017 A 
ATOM     25  C   UNL     1       5.211  -1.104  -0.601  1.00  0.00     0.017 A 
ATOM     26  C   UNL     1       6.322  -0.337  -0.235  1.00  0.00     0.007 A 
BRANCH  26  27
ATOM     27  S   UNL     1       7.961  -0.808  -0.789  1.00  0.00    -0.130 SA
ATOM     28  C   UNL     1       8.295  -1.838   0.673  1.00  0.00     0.091 C 
ENDBRANCH  26  27
ENDBRANCH  17  21
ENDBRANCH   6  15
TORSDOF 6
