REMARK SMILES O=C(Nc1cccc([N+](=O)[O-])c1)c1ccc2ccccc2c1O
REMARK SMILES IDX 1 1 2 2 3 3 13 5 14 6 22 7 15 8 21 9 16 10 20 11 17 12 19 13
REMARK SMILES IDX 18 14 23 15 4 17 5 18 12 19 6 20 8 21 7 22 9 23 10 24 11 25
REMARK H PARENT 3 4 23 16
ROOT
ATOM      1  O   UNL     1       1.104  -1.715  -0.603  1.00  0.00    -0.269 OA
ATOM      2  C   UNL     1       0.524  -0.668  -0.207  1.00  0.00     0.259 C 
ATOM      3  N   UNL     1       1.263   0.361   0.475  1.00  0.00    -0.322 N 
ATOM      4  H   UNL     1       0.741   1.180   0.860  1.00  0.00     0.170 HD
ENDROOT
BRANCH   2   5
ATOM      5  C   UNL     1      -0.925  -0.513  -0.462  1.00  0.00     0.082 A 
ATOM      6  C   UNL     1      -1.420  -0.825  -1.734  1.00  0.00     0.018 A 
ATOM      7  C   UNL     1      -1.810  -0.093   0.555  1.00  0.00     0.136 A 
ATOM      8  C   UNL     1      -2.774  -0.686  -2.024  1.00  0.00     0.010 A 
ATOM      9  C   UNL     1      -3.192   0.078   0.260  1.00  0.00     0.024 A 
ATOM     10  C   UNL     1      -3.663  -0.230  -1.046  1.00  0.00    -0.015 A 
ATOM     11  C   UNL     1      -4.121   0.548   1.215  1.00  0.00     0.012 A 
ATOM     12  C   UNL     1      -5.024  -0.080  -1.359  1.00  0.00     0.009 A 
ATOM     13  C   UNL     1      -5.471   0.693   0.884  1.00  0.00     0.001 A 
ATOM     14  C   UNL     1      -5.921   0.378  -0.396  1.00  0.00     0.001 A 
BRANCH   7  15
ATOM     15  O   UNL     1      -1.290   0.107   1.840  1.00  0.00    -0.506 OA
ATOM     16  H   UNL     1      -1.837   0.333   2.657  1.00  0.00     0.293 HD
ENDBRANCH   7  15
ENDBRANCH   2   5
BRANCH   3  17
ATOM     17  C   UNL     1       2.676   0.299   0.733  1.00  0.00     0.048 A 
ATOM     18  C   UNL     1       3.172   0.792   1.947  1.00  0.00     0.026 A 
ATOM     19  C   UNL     1       3.578  -0.186  -0.232  1.00  0.00     0.111 A 
ATOM     20  C   UNL     1       4.541   0.765   2.214  1.00  0.00     0.009 A 
ATOM     21  C   UNL     1       4.961  -0.217   0.029  1.00  0.00     0.271 A 
ATOM     22  C   UNL     1       5.432   0.259   1.265  1.00  0.00     0.086 A 
BRANCH  21  23
ATOM     23  N   UNL     1       5.884  -0.720  -0.955  1.00  0.00     0.062 N 
ATOM     24  O   UNL     1       5.473  -1.151  -2.052  1.00  0.00    -0.258 OA
ATOM     25  O   UNL     1       7.236  -0.737  -0.701  1.00  0.00    -0.258 OA
ENDBRANCH  21  23
ENDBRANCH   3  17
TORSDOF 4
