REMARK SMILES O=C([O-])c1nc(=O)[nH]c(O)c1F
REMARK SMILES IDX 9 1 8 2 6 3 7 4 5 5 4 6 11 7 12 8 10 10 2 12 1 13 3 14
REMARK H PARENT 8 9 10 11
ROOT
ATOM      1  C   UNL     1      -1.228  -0.514  -0.054  1.00  0.00     0.231 A 
ATOM      2  N   UNL     1      -1.578   0.789  -0.223  1.00  0.00    -0.274 N 
ATOM      3  C   UNL     1      -0.635   1.768  -0.244  1.00  0.00     0.348 A 
ATOM      4  O   UNL     1      -0.973   2.971  -0.403  1.00  0.00    -0.246 OA
ATOM      5  N   UNL     1       0.677   1.452  -0.095  1.00  0.00    -0.188 NA
ATOM      6  C   UNL     1       1.084   0.166   0.078  1.00  0.00     0.133 A 
ATOM      7  C   UNL     1       0.121  -0.858   0.102  1.00  0.00     0.210 A 
ATOM      8  F   UNL     1       0.476  -2.157   0.272  1.00  0.00    -0.199 F 
ATOM      9  H   UNL     1      -2.587   1.038  -0.339  1.00  0.00     0.175 HD
ENDROOT
BRANCH   1  10
ATOM     10  O   UNL     1      -2.221  -1.493  -0.037  1.00  0.00    -0.492 OA
ATOM     11  H   UNL     1      -2.004  -2.474   0.087  1.00  0.00     0.295 HD
ENDBRANCH   1  10
BRANCH   6  12
ATOM     12  C   UNL     1       2.525  -0.113   0.235  1.00  0.00     0.093 C 
ATOM     13  O   UNL     1       3.353   0.835   0.207  1.00  0.00    -0.543 OA
ATOM     14  O   UNL     1       2.990  -1.410   0.414  1.00  0.00    -0.543 OA
ENDBRANCH   6  12
TORSDOF 2
