REMARK SMILES CCOC(=O)c1cc[nH]c1CC(=O)NC
REMARK SMILES IDX 6 1 7 2 8 3 9 4 10 5 4 7 5 8 3 9 2 10 1 11 11 12 12 13 14 14
REMARK SMILES IDX 13 15 15 16
REMARK H PARENT 9 6 14 17
ROOT
ATOM      1  C   UNL     1      -0.490   0.168  -0.975  1.00  0.00     0.081 A 
ATOM      2  C   UNL     1      -0.750   1.332  -1.676  1.00  0.00     0.035 A 
ATOM      3  C   UNL     1       0.317   1.525  -2.529  1.00  0.00     0.083 A 
ATOM      4  N   UNL     1       1.214   0.534  -2.381  1.00  0.00    -0.364 N 
ATOM      5  C   UNL     1       0.732  -0.305  -1.444  1.00  0.00     0.039 A 
ATOM      6  H   UNL     1       2.119   0.443  -2.894  1.00  0.00     0.166 HD
ENDROOT
BRANCH   1   7
ATOM      7  C   UNL     1      -1.366  -0.403   0.063  1.00  0.00     0.339 C 
ATOM      8  O   UNL     1      -1.055  -1.476   0.647  1.00  0.00    -0.246 OA
BRANCH   7   9
ATOM      9  O   UNL     1      -2.552   0.260   0.396  1.00  0.00    -0.462 OA
BRANCH   9  10
ATOM     10  C   UNL     1      -3.451  -0.223   1.388  1.00  0.00     0.230 C 
ATOM     11  C   UNL     1      -4.634   0.724   1.508  1.00  0.00     0.049 C 
ENDBRANCH   9  10
ENDBRANCH   7   9
ENDBRANCH   1   7
BRANCH   5  12
ATOM     12  C   UNL     1       1.490  -1.510  -0.964  1.00  0.00     0.154 C 
BRANCH  12  13
ATOM     13  C   UNL     1       2.230  -1.190   0.298  1.00  0.00     0.225 C 
ATOM     14  N   UNL     1       3.375  -0.328   0.261  1.00  0.00    -0.359 N 
ATOM     15  O   UNL     1       1.832  -1.669   1.395  1.00  0.00    -0.275 OA
ATOM     16  C   UNL     1       4.104   0.033   1.470  1.00  0.00     0.142 C 
ATOM     17  H   UNL     1       3.696   0.058  -0.655  1.00  0.00     0.163 HD
ENDBRANCH  12  13
ENDBRANCH   5  12
TORSDOF 5
