REMARK SMILES Cc1cccnc1NC(=S)Nc1ncccc1C
REMARK SMILES IDX 9 1 10 2 8 3 7 5 2 6 3 7 4 8 6 9 5 10 1 11 11 12 12 14 13 15
REMARK SMILES IDX 17 16 14 17 16 18 15 19 18 20
REMARK H PARENT 8 4 11 13
ROOT
ATOM      1  C   UNL     1      -0.040   0.532   1.610  1.00  0.00     0.177 C 
ATOM      2  S   UNL     1      -0.710   0.534   3.110  1.00  0.00    -0.040 S 
ENDROOT
BRANCH   1   3
ATOM      3  N   UNL     1      -0.851   0.533   0.417  1.00  0.00    -0.317 N 
ATOM      4  H   UNL     1      -0.359   0.605  -0.501  1.00  0.00     0.170 HD
BRANCH   3   5
ATOM      5  C   UNL     1      -2.287   0.432   0.385  1.00  0.00     0.134 A 
ATOM      6  C   UNL     1      -2.936  -0.275  -0.652  1.00  0.00    -0.008 A 
ATOM      7  C   UNL     1      -4.339  -0.294  -0.680  1.00  0.00     0.009 A 
ATOM      8  C   UNL     1      -5.070   0.366   0.306  1.00  0.00     0.021 A 
ATOM      9  N   UNL     1      -3.036   1.074   1.325  1.00  0.00    -0.239 NA
ATOM     10  C   UNL     1      -4.394   1.051   1.314  1.00  0.00     0.113 A 
ATOM     11  C   UNL     1      -2.157  -0.990  -1.722  1.00  0.00     0.048 C 
ENDBRANCH   3   5
ENDBRANCH   1   3
BRANCH   1  12
ATOM     12  N   UNL     1       1.392   0.561   1.507  1.00  0.00    -0.317 N 
ATOM     13  H   UNL     1       1.927   0.983   2.299  1.00  0.00     0.170 HD
BRANCH  12  14
ATOM     14  C   UNL     1       2.115  -0.086   0.445  1.00  0.00     0.134 A 
ATOM     15  N   UNL     1       1.533  -1.115  -0.235  1.00  0.00    -0.239 NA
ATOM     16  C   UNL     1       3.436   0.298   0.123  1.00  0.00    -0.008 A 
ATOM     17  C   UNL     1       2.174  -1.786  -1.226  1.00  0.00     0.113 A 
ATOM     18  C   UNL     1       4.111  -0.399  -0.892  1.00  0.00     0.009 A 
ATOM     19  C   UNL     1       3.479  -1.440  -1.571  1.00  0.00     0.021 A 
ATOM     20  C   UNL     1       4.130   1.419   0.847  1.00  0.00     0.048 C 
ENDBRANCH  12  14
ENDBRANCH   1  12
TORSDOF 4
