REMARK SMILES CCCNc1cc(=S)[nH]c(=N)[nH]1
REMARK SMILES IDX 4 1 5 3 12 4 10 5 6 6 9 7 7 8 8 11 11 12 3 14 2 15 1 16
REMARK H PARENT 4 2 12 9 9 10 11 13
ROOT
ATOM      1  N   UNL     1      -0.518  -0.225   0.688  1.00  0.00    -0.371 N 
ATOM      2  H   UNL     1      -0.897  -0.485   1.628  1.00  0.00     0.162 HD
ENDROOT
BRANCH   1   3
ATOM      3  C   UNL     1       0.910  -0.110   0.540  1.00  0.00     0.108 A 
ATOM      4  N   UNL     1       1.478   0.225  -0.656  1.00  0.00    -0.313 N 
ATOM      5  C   UNL     1       2.833   0.332  -0.786  1.00  0.00     0.199 A 
ATOM      6  C   UNL     1       1.733  -0.347   1.646  1.00  0.00     0.083 A 
ATOM      7  N   UNL     1       3.640   0.103   0.286  1.00  0.00    -0.317 N 
ATOM      8  C   UNL     1       3.115  -0.233   1.496  1.00  0.00     0.109 A 
ATOM      9  H   UNL     1       0.877   0.405  -1.491  1.00  0.00     0.171 HD
ATOM     10  H   UNL     1       4.677   0.187   0.176  1.00  0.00     0.170 HD
ATOM     11  S   UNL     1       4.102  -0.505   2.775  1.00  0.00    -0.060 S 
BRANCH   5  12
ATOM     12  N   UNL     1       3.360   0.651  -1.928  1.00  0.00    -0.269 NA
ATOM     13  H   UNL     1       2.780   0.835  -2.777  1.00  0.00     0.191 HD
ENDBRANCH   5  12
ENDBRANCH   1   3
BRANCH   1  14
ATOM     14  C   UNL     1      -1.456   0.004  -0.412  1.00  0.00     0.114 C 
BRANCH  14  15
ATOM     15  C   UNL     1      -2.903  -0.193   0.053  1.00  0.00     0.018 C 
ATOM     16  C   UNL     1      -3.888   0.044  -1.088  1.00  0.00     0.006 C 
ENDBRANCH  14  15
ENDBRANCH   1  14
TORSDOF 4
