REMARK SMILES CC(C)COc1nc2c(c(=O)n(C)c(=O)n2C)n1C
REMARK SMILES IDX 4 1 2 2 1 3 3 4 5 5 6 6 7 7 18 8 8 9 9 10 16 11 10 12 14 13
REMARK SMILES IDX 12 14 19 15 17 16 11 17 15 18 13 19
REMARK H PARENT
ROOT
ATOM      1  C   UNL     1       2.902   0.696   0.843  1.00  0.00     0.236 C 
ENDROOT
BRANCH   1   2
ATOM      2  C   UNL     1       3.375  -0.088  -0.395  1.00  0.00     0.021 C 
ATOM      3  C   UNL     1       4.508   0.665  -1.101  1.00  0.00     0.011 C 
ATOM      4  C   UNL     1       3.832  -1.502  -0.012  1.00  0.00     0.011 C 
ENDBRANCH   1   2
BRANCH   1   5
ATOM      5  O   UNL     1       1.803   0.043   1.476  1.00  0.00    -0.464 OA
BRANCH   5   6
ATOM      6  C   UNL     1       0.504   0.055   0.958  1.00  0.00     0.298 A 
ATOM      7  N   UNL     1       0.148   0.747  -0.157  1.00  0.00    -0.176 NA
ATOM      8  N   UNL     1      -0.522  -0.627   1.525  1.00  0.00    -0.291 N 
ATOM      9  C   UNL     1      -1.165   0.464  -0.270  1.00  0.00     0.171 A 
ATOM     10  C   UNL     1      -1.570  -0.357   0.728  1.00  0.00     0.155 A 
ATOM     11  N   UNL     1      -2.018   0.918  -1.229  1.00  0.00    -0.279 N 
ATOM     12  C   UNL     1      -2.890  -0.785   0.795  1.00  0.00     0.282 A 
ATOM     13  C   UNL     1      -3.326   0.486  -1.188  1.00  0.00     0.332 A 
ATOM     14  N   UNL     1      -3.759  -0.372  -0.190  1.00  0.00    -0.261 N 
ATOM     15  C   UNL     1      -0.480  -1.476   2.713  1.00  0.00     0.155 C 
ATOM     16  C   UNL     1      -1.539   1.788  -2.311  1.00  0.00     0.157 C 
ATOM     17  O   UNL     1      -3.274  -1.532   1.736  1.00  0.00    -0.267 OA
ATOM     18  O   UNL     1      -4.138   0.880  -2.072  1.00  0.00    -0.247 OA
ATOM     19  C   UNL     1      -5.171  -0.787  -0.143  1.00  0.00     0.159 C 
ENDBRANCH   5   6
ENDBRANCH   1   5
TORSDOF 3
