REMARK SMILES O=c1[nH]c2ccccc2n1C1=CC[NH2+]CC1
REMARK SMILES IDX 10 1 9 2 2 3 8 4 4 5 1 6 3 7 7 8 5 9 6 10 11 12 13 13 14 14
REMARK SMILES IDX 12 15 15 16 16 17
REMARK H PARENT 3 11 14 18 14 19
ROOT
ATOM      1  N   UNL     1      -0.393  -0.570  -0.493  1.00  0.00    -0.264 N 
ATOM      2  C   UNL     1      -1.534  -0.498   0.224  1.00  0.00     0.074 A 
ATOM      3  C   UNL     1      -0.742  -1.287  -1.592  1.00  0.00     0.330 A 
ATOM      4  C   UNL     1      -1.762   0.075   1.478  1.00  0.00     0.029 A 
ATOM      5  C   UNL     1      -2.526  -1.163  -0.449  1.00  0.00     0.067 A 
ATOM      6  O   UNL     1       0.056  -1.561  -2.529  1.00  0.00    -0.247 OA
ATOM      7  N   UNL     1      -2.041  -1.667  -1.597  1.00  0.00    -0.305 N 
ATOM      8  C   UNL     1      -3.059  -0.022   2.017  1.00  0.00     0.002 A 
ATOM      9  C   UNL     1      -3.818  -1.278   0.058  1.00  0.00     0.028 A 
ATOM     10  C   UNL     1      -4.083  -0.691   1.308  1.00  0.00     0.002 A 
ATOM     11  H   UNL     1      -2.547  -2.221  -2.323  1.00  0.00     0.171 HD
ENDROOT
BRANCH   1  12
ATOM     12  C   UNL     1       0.890   0.018  -0.214  1.00  0.00     0.035 C 
ATOM     13  C   UNL     1       3.377  -0.191  -0.083  1.00  0.00     0.291 C 
ATOM     14  N   UNL     1       3.388   1.169   0.479  1.00  0.00    -0.343 N 
ATOM     15  C   UNL     1       1.985  -0.759  -0.197  1.00  0.00     0.055 C 
ATOM     16  C   UNL     1       2.406   2.026  -0.198  1.00  0.00     0.267 C 
ATOM     17  C   UNL     1       0.989   1.501   0.052  1.00  0.00     0.115 C 
ATOM     18  H   UNL     1       4.342   1.580   0.353  1.00  0.00     0.346 HD
ATOM     19  H   UNL     1       3.179   1.129   1.505  1.00  0.00     0.346 HD
ENDBRANCH   1  12
TORSDOF 1
