REMARK SMILES CCOC(=O)Nc1ccc2nc(Sc3ccc(Cl)cc3)sc2c1
REMARK SMILES IDX 7 1 8 2 9 3 10 4 11 5 12 6 21 7 22 8 23 9 6 10 4 11 5 12
REMARK SMILES IDX 3 14 2 15 1 16 13 17 14 18 15 19 20 20 16 21 19 22 17 23
REMARK SMILES IDX 18 24
REMARK H PARENT 6 13
ROOT
ATOM      1  C   UNL     1       1.634  -1.181  -0.807  1.00  0.00     0.046 A 
ATOM      2  C   UNL     1       0.941  -2.409  -0.910  1.00  0.00     0.028 A 
ATOM      3  C   UNL     1      -0.430  -2.440  -1.218  1.00  0.00     0.032 A 
ATOM      4  C   UNL     1      -1.096  -1.235  -1.437  1.00  0.00     0.083 A 
ATOM      5  N   UNL     1      -2.413  -1.132  -1.747  1.00  0.00    -0.229 NA
ATOM      6  C   UNL     1      -2.766   0.165  -1.911  1.00  0.00     0.155 A 
ATOM      7  S   UNL     1      -1.470   1.228  -1.683  1.00  0.00    -0.107 S 
ATOM      8  C   UNL     1      -0.412  -0.034  -1.355  1.00  0.00     0.058 A 
ATOM      9  C   UNL     1       0.945   0.028  -1.052  1.00  0.00     0.047 A 
ENDROOT
BRANCH   1  10
ATOM     10  N   UNL     1       3.041  -1.193  -0.512  1.00  0.00    -0.291 N 
ATOM     11  C   UNL     1       3.719  -0.178   0.240  1.00  0.00     0.411 C 
ATOM     12  O   UNL     1       3.067   0.701   0.868  1.00  0.00    -0.224 OA
ATOM     13  H   UNL     1       3.597  -2.033  -0.788  1.00  0.00     0.173 HD
BRANCH  11  14
ATOM     14  O   UNL     1       5.115  -0.199   0.305  1.00  0.00    -0.450 OA
BRANCH  14  15
ATOM     15  C   UNL     1       5.865   0.761   1.042  1.00  0.00     0.231 C 
ATOM     16  C   UNL     1       7.349   0.462   0.907  1.00  0.00     0.049 C 
ENDBRANCH  14  15
ENDBRANCH  11  14
ENDBRANCH   1  10
BRANCH   6  17
ATOM     17  S   UNL     1      -4.430   0.683  -2.310  1.00  0.00    -0.059 SA
BRANCH  17  18
ATOM     18  C   UNL     1      -4.895   0.804  -0.584  1.00  0.00     0.015 A 
ATOM     19  C   UNL     1      -5.428  -0.309   0.079  1.00  0.00     0.017 A 
ATOM     20  C   UNL     1      -4.727   2.012   0.106  1.00  0.00     0.017 A 
ATOM     21  C   UNL     1      -5.784  -0.216   1.428  1.00  0.00     0.021 A 
ATOM     22  C   UNL     1      -5.084   2.104   1.455  1.00  0.00     0.021 A 
ATOM     23  C   UNL     1      -5.612   0.990   2.118  1.00  0.00     0.041 A 
ATOM     24  Cl  UNL     1      -6.059   1.105   3.810  1.00  0.00    -0.084 Cl
ENDBRANCH  17  18
ENDBRANCH   6  17
TORSDOF 5
