REMARK SMILES Cn1[nH]cc2c(=Nc3ccccc3Cl)nc(Cl)nc1-2
REMARK SMILES IDX 7 1 6 2 3 3 4 4 2 5 5 6 19 7 18 8 15 9 16 10 1 12 17 13 8 14
REMARK SMILES IDX 9 15 13 16 10 17 12 18 11 19 14 20
REMARK H PARENT 3 11
ROOT
ATOM      1  N   UNL     1      -1.149   0.891  -1.604  1.00  0.00    -0.227 NA
ENDROOT
BRANCH   1   2
ATOM      2  C   UNL     1       0.149   0.820  -1.514  1.00  0.00     0.168 A 
ATOM      3  N   UNL     1       1.684  -0.597   1.444  1.00  0.00    -0.304 N 
ATOM      4  C   UNL     1       0.526  -0.287   0.806  1.00  0.00     0.117 A 
ATOM      5  N   UNL     1       2.728  -0.299   0.677  1.00  0.00    -0.274 N 
ATOM      6  C   UNL     1       0.837   0.242  -0.440  1.00  0.00     0.081 A 
ATOM      7  C   UNL     1       2.262   0.223  -0.467  1.00  0.00     0.162 A 
ATOM      8  N   UNL     1       2.974   0.772  -1.475  1.00  0.00    -0.198 NA
ATOM      9  N   UNL     1       0.909   1.350  -2.520  1.00  0.00    -0.198 NA
ATOM     10  C   UNL     1       2.283   1.330  -2.513  1.00  0.00     0.226 A 
ATOM     11  H   UNL     1       1.754  -0.979   2.413  1.00  0.00     0.187 HD
ATOM     12  C   UNL     1       4.121  -0.385   1.099  1.00  0.00     0.173 C 
ATOM     13  Cl  UNL     1       3.161   2.044  -3.847  1.00  0.00    -0.041 Cl
ENDBRANCH   1   2
BRANCH   1  14
ATOM     14  C   UNL     1      -2.104   0.331  -0.694  1.00  0.00     0.084 A 
ATOM     15  C   UNL     1      -2.835   1.184   0.143  1.00  0.00     0.030 A 
ATOM     16  C   UNL     1      -2.363  -1.054  -0.677  1.00  0.00     0.066 A 
ATOM     17  C   UNL     1      -3.788   0.660   1.022  1.00  0.00     0.002 A 
ATOM     18  C   UNL     1      -3.319  -1.571   0.206  1.00  0.00     0.023 A 
ATOM     19  C   UNL     1      -4.027  -0.716   1.056  1.00  0.00     0.002 A 
ATOM     20  Cl  UNL     1      -1.511  -2.152  -1.754  1.00  0.00    -0.082 Cl
ENDBRANCH   1  14
TORSDOF 2
