REMARK SMILES Cn1ncc2c(=Nc3ccc(O)cc3)[nH]c(Cl)nc21
REMARK SMILES IDX 8 1 9 2 10 3 11 4 13 5 14 6 7 7 6 8 15 9 16 10 18 11 5 12
REMARK SMILES IDX 19 13 4 14 2 15 3 16 17 18 1 19 12 20
REMARK H PARENT 15 17 12 21
ROOT
ATOM      1  C   UNL     1      -1.718  -0.836  -0.180  1.00  0.00     0.066 A 
ATOM      2  C   UNL     1      -1.875  -0.550   1.185  1.00  0.00     0.032 A 
ATOM      3  C   UNL     1      -2.984   0.177   1.627  1.00  0.00     0.048 A 
ATOM      4  C   UNL     1      -3.957   0.600   0.714  1.00  0.00     0.115 A 
ATOM      5  C   UNL     1      -3.818   0.285  -0.645  1.00  0.00     0.048 A 
ATOM      6  C   UNL     1      -2.708  -0.442  -1.088  1.00  0.00     0.032 A 
ENDROOT
BRANCH   1   7
ATOM      7  N   UNL     1      -0.618  -1.632  -0.635  1.00  0.00    -0.230 NA
BRANCH   7   8
ATOM      8  C   UNL     1       0.657  -1.374  -0.524  1.00  0.00     0.145 A 
ATOM      9  N   UNL     1       1.560  -2.343  -0.876  1.00  0.00    -0.314 N 
ATOM     10  C   UNL     1       2.914  -2.147  -0.766  1.00  0.00     0.203 A 
ATOM     11  N   UNL     1       3.408  -0.958  -0.317  1.00  0.00    -0.200 NA
ATOM     12  C   UNL     1       1.181  -0.146  -0.080  1.00  0.00     0.082 A 
ATOM     13  C   UNL     1       2.530   0.014   0.022  1.00  0.00     0.164 A 
ATOM     14  C   UNL     1       0.662   1.108   0.219  1.00  0.00     0.149 A 
ATOM     15  N   UNL     1       2.823   1.268   0.394  1.00  0.00    -0.250 N 
ATOM     16  N   UNL     1       1.689   1.949   0.499  1.00  0.00    -0.179 NA
ATOM     17  H   UNL     1       1.213  -3.266  -1.225  1.00  0.00     0.171 HD
ATOM     18  Cl  UNL     1       4.027  -3.425  -1.214  1.00  0.00    -0.043 Cl
ATOM     19  C   UNL     1       4.149   1.859   0.517  1.00  0.00     0.176 C 
ENDBRANCH   7   8
ENDBRANCH   1   7
BRANCH   4  20
ATOM     20  O   UNL     1      -5.056   1.325   1.167  1.00  0.00    -0.508 OA
ATOM     21  H   UNL     1      -5.778   1.644   0.531  1.00  0.00     0.293 HD
ENDBRANCH   4  20
TORSDOF 3
