REMARK SMILES CCOC(=O)c1ccc2c(c1)NCc1cccc(OC)c1O2
REMARK SMILES IDX 4 1 5 2 3 3 2 4 1 5 6 6 7 7 11 8 8 9 10 10 9 11 12 12 22 13
REMARK SMILES IDX 13 14 21 15 14 16 18 17 15 18 17 19 16 20 19 22 20 23
REMARK H PARENT 12 21
ROOT
ATOM      1  C   UNL     1       3.779   1.338   0.362  1.00  0.00     0.338 C 
ATOM      2  O   UNL     1       4.287   2.360   0.901  1.00  0.00    -0.246 OA
ENDROOT
BRANCH   1   3
ATOM      3  O   UNL     1       4.570   0.500  -0.432  1.00  0.00    -0.462 OA
BRANCH   3   4
ATOM      4  C   UNL     1       5.952   0.745  -0.670  1.00  0.00     0.230 C 
ATOM      5  C   UNL     1       6.515  -0.345  -1.567  1.00  0.00     0.049 C 
ENDBRANCH   3   4
ENDBRANCH   1   3
BRANCH   1   6
ATOM      6  C   UNL     1       2.347   1.022   0.567  1.00  0.00     0.062 A 
ATOM      7  C   UNL     1       1.540   1.847   1.362  1.00  0.00     0.019 A 
ATOM      8  C   UNL     1       1.781  -0.119  -0.021  1.00  0.00     0.045 A 
ATOM      9  C   UNL     1       0.189   1.551   1.541  1.00  0.00     0.050 A 
ATOM     10  C   UNL     1       0.426  -0.441   0.171  1.00  0.00     0.079 A 
ATOM     11  C   UNL     1      -0.396   0.434   0.931  1.00  0.00     0.150 A 
ATOM     12  N   UNL     1      -0.050  -1.685  -0.359  1.00  0.00    -0.378 N 
ATOM     13  O   UNL     1      -1.786   0.295   1.103  1.00  0.00    -0.451 OA
ATOM     14  C   UNL     1      -1.149  -2.411   0.250  1.00  0.00     0.153 C 
ATOM     15  C   UNL     1      -2.693  -0.435   0.320  1.00  0.00     0.174 A 
ATOM     16  C   UNL     1      -2.430  -1.745  -0.119  1.00  0.00     0.018 A 
ATOM     17  C   UNL     1      -3.928   0.167   0.018  1.00  0.00     0.161 A 
ATOM     18  C   UNL     1      -3.382  -2.427  -0.893  1.00  0.00     0.010 A 
ATOM     19  C   UNL     1      -4.875  -0.533  -0.753  1.00  0.00     0.050 A 
ATOM     20  C   UNL     1      -4.596  -1.821  -1.210  1.00  0.00     0.004 A 
ATOM     21  H   UNL     1       0.515  -2.179  -1.085  1.00  0.00     0.161 HD
BRANCH  17  22
ATOM     22  O   UNL     1      -4.171   1.463   0.499  1.00  0.00    -0.493 OA
ATOM     23  C   UNL     1      -5.370   2.197   0.269  1.00  0.00     0.278 C 
ENDBRANCH  17  22
ENDBRANCH   1   6
TORSDOF 4
