REMARK SMILES CC(=O)OCCn1c2nc(=O)[nH]c(=O)c-2nc2cc(C)c(C)cc21
REMARK SMILES IDX 5 1 4 2 2 3 1 4 3 5 6 6 7 7 8 8 24 9 9 10 15 11 23 12 17 13
REMARK SMILES IDX 10 14 13 15 16 16 21 17 18 18 12 19 19 20 11 21 14 22 22 23
REMARK SMILES IDX 20 25
REMARK H PARENT 12 24
ROOT
ATOM      1  C   UNL     1       2.216  -0.398   0.340  1.00  0.00     0.254 C 
ENDROOT
BRANCH   1   2
ATOM      2  O   UNL     1       3.339  -1.234   0.084  1.00  0.00    -0.464 OA
BRANCH   2   3
ATOM      3  C   UNL     1       4.214  -1.650   1.092  1.00  0.00     0.302 C 
ATOM      4  C   UNL     1       5.381  -2.510   0.743  1.00  0.00     0.139 C 
ATOM      5  O   UNL     1       4.050  -1.272   2.284  1.00  0.00    -0.253 OA
ENDBRANCH   2   3
ENDBRANCH   1   2
BRANCH   1   6
ATOM      6  C   UNL     1       1.471  -0.130  -0.966  1.00  0.00     0.166 C 
BRANCH   6   7
ATOM      7  N   UNL     1       0.278   0.714  -0.724  1.00  0.00    -0.319 N 
ATOM      8  C   UNL     1       0.394   2.075  -0.862  1.00  0.00     0.170 A 
ATOM      9  C   UNL     1      -0.941   0.175  -0.337  1.00  0.00     0.069 A 
ATOM     10  N   UNL     1       1.574   2.671  -1.179  1.00  0.00    -0.173 NA
ATOM     11  C   UNL     1      -0.783   2.930  -0.662  1.00  0.00     0.172 A 
ATOM     12  C   UNL     1      -1.115  -1.209  -0.092  1.00  0.00     0.032 A 
ATOM     13  C   UNL     1      -2.070   1.024  -0.158  1.00  0.00     0.088 A 
ATOM     14  C   UNL     1       1.674   4.020  -1.318  1.00  0.00     0.349 A 
ATOM     15  C   UNL     1      -0.636   4.307  -0.820  1.00  0.00     0.281 A 
ATOM     16  N   UNL     1      -1.961   2.365  -0.327  1.00  0.00    -0.237 NA
ATOM     17  C   UNL     1      -2.361  -1.738   0.286  1.00  0.00    -0.046 A 
ATOM     18  C   UNL     1      -3.310   0.494   0.205  1.00  0.00     0.034 A 
ATOM     19  N   UNL     1       0.583   4.821  -1.143  1.00  0.00    -0.271 N 
ATOM     20  C   UNL     1      -3.474  -0.880   0.414  1.00  0.00    -0.046 A 
ATOM     21  O   UNL     1       2.787   4.531  -1.613  1.00  0.00    -0.246 OA
ATOM     22  O   UNL     1      -1.622   5.076  -0.661  1.00  0.00    -0.267 OA
ATOM     23  C   UNL     1      -2.490  -3.221   0.528  1.00  0.00     0.044 C 
ATOM     24  H   UNL     1       0.686   5.855  -1.258  1.00  0.00     0.175 HD
ATOM     25  C   UNL     1      -4.829  -1.408   0.813  1.00  0.00     0.044 C 
ENDBRANCH   6   7
ENDBRANCH   1   6
TORSDOF 4
