REMARK SMILES Nc1ccc(C(=O)Nc2ccc(NC(=O)c3ccco3)c(O)c2)cc1
REMARK SMILES IDX 6 1 7 2 8 3 5 5 2 6 3 7 25 8 4 9 24 10 1 11 9 14 10 15 23 16
REMARK SMILES IDX 11 17 21 18 12 19 22 20 13 22 14 23 15 25 16 26 17 27 20 28
REMARK SMILES IDX 18 29 19 30
REMARK H PARENT 8 4 1 12 1 13 22 21 13 24
ROOT
ATOM      1  C   UNL     1       2.682  -0.661  -0.217  1.00  0.00     0.255 C 
ATOM      2  O   UNL     1       2.241  -1.841  -0.291  1.00  0.00    -0.269 OA
ATOM      3  N   UNL     1       1.766   0.451  -0.235  1.00  0.00    -0.322 N 
ATOM      4  H   UNL     1       2.143   1.421  -0.309  1.00  0.00     0.170 HD
ENDROOT
BRANCH   1   5
ATOM      5  C   UNL     1       4.147  -0.450  -0.120  1.00  0.00     0.040 A 
ATOM      6  C   UNL     1       6.938  -0.098   0.070  1.00  0.00     0.031 A 
ATOM      7  C   UNL     1       6.336  -1.252   0.586  1.00  0.00     0.026 A 
ATOM      8  C   UNL     1       6.144   0.876  -0.550  1.00  0.00     0.026 A 
ATOM      9  C   UNL     1       4.953  -1.430   0.487  1.00  0.00     0.016 A 
ATOM     10  C   UNL     1       4.760   0.701  -0.648  1.00  0.00     0.016 A 
BRANCH   6  11
ATOM     11  N   UNL     1       8.353   0.083   0.169  1.00  0.00    -0.399 N 
ATOM     12  H   UNL     1       8.953  -0.638   0.628  1.00  0.00     0.156 HD
ATOM     13  H   UNL     1       8.810   0.940  -0.214  1.00  0.00     0.156 HD
ENDBRANCH   6  11
ENDBRANCH   1   5
BRANCH   3  14
ATOM     14  C   UNL     1       0.335   0.309  -0.228  1.00  0.00     0.045 A 
ATOM     15  C   UNL     1      -0.301  -0.666   0.558  1.00  0.00     0.028 A 
ATOM     16  C   UNL     1      -0.447   1.201  -0.974  1.00  0.00     0.074 A 
ATOM     17  C   UNL     1      -1.694  -0.766   0.568  1.00  0.00     0.032 A 
ATOM     18  C   UNL     1      -1.846   1.105  -0.967  1.00  0.00     0.141 A 
ATOM     19  C   UNL     1      -2.480   0.123  -0.186  1.00  0.00     0.084 A 
BRANCH  18  20
ATOM     20  O   UNL     1      -2.609   1.991  -1.727  1.00  0.00    -0.506 OA
ATOM     21  H   UNL     1      -2.178   2.710  -2.297  1.00  0.00     0.293 HD
ENDBRANCH  18  20
BRANCH  19  22
ATOM     22  N   UNL     1      -3.915   0.009  -0.203  1.00  0.00    -0.316 N 
ATOM     23  C   UNL     1      -4.696  -0.368   0.944  1.00  0.00     0.291 C 
ATOM     24  H   UNL     1      -4.419   0.302  -1.069  1.00  0.00     0.170 HD
ATOM     25  O   UNL     1      -4.191  -0.321   2.098  1.00  0.00    -0.265 OA
BRANCH  23  26
ATOM     26  C   UNL     1      -6.103  -0.775   0.801  1.00  0.00     0.191 A 
ATOM     27  C   UNL     1      -6.796  -0.960  -0.381  1.00  0.00     0.056 A 
ATOM     28  O   UNL     1      -6.890  -1.030   1.822  1.00  0.00    -0.459 OA
ATOM     29  C   UNL     1      -8.067  -1.343  -0.011  1.00  0.00     0.043 A 
ATOM     30  C   UNL     1      -8.074  -1.371   1.368  1.00  0.00     0.196 A 
ENDBRANCH  23  26
ENDBRANCH  19  22
ENDBRANCH   3  14
TORSDOF 6
