REMARK SMILES CC(=O)Oc1c(C)c(OC(C)=O)c2c(c1C(C)=O)O[C@H]1C=C(O)C(=C(C)O)C(=O)[C@]21C
REMARK SMILES IDX 24 1 28 2 29 3 30 4 31 5 13 6 8 7 6 8 7 9 5 10 15 11 14 12
REMARK SMILES IDX 19 13 20 14 21 15 22 16 25 17 26 18 27 19 23 21 9 23 10 24
REMARK SMILES IDX 11 25 12 26 16 27 17 28 18 29 4 30 2 31 1 32 3 33
REMARK H PARENT 27 20 23 22
ROOT
ATOM      1  C   UNL     1       3.934  -0.160   0.239  1.00  0.00     0.097 C 
ATOM      2  C   UNL     1       2.552   0.462   0.283  1.00  0.00     0.184 C 
ATOM      3  O   UNL     1       2.283   1.491   0.958  1.00  0.00    -0.293 OA
ATOM      4  C   UNL     1       1.481  -0.242  -0.510  1.00  0.00     0.104 C 
ATOM      5  C   UNL     1       1.677   0.048  -2.021  1.00  0.00     0.030 C 
ATOM      6  C   UNL     1       0.016  -0.096  -0.203  1.00  0.00     0.056 A 
ATOM      7  C   UNL     1      -0.774   1.055  -0.140  1.00  0.00     0.145 A 
ATOM      8  C   UNL     1      -2.186   0.905  -0.134  1.00  0.00     0.036 A 
ATOM      9  C   UNL     1      -3.088   2.112  -0.088  1.00  0.00     0.052 C 
ATOM     10  C   UNL     1      -2.762  -0.394  -0.164  1.00  0.00     0.152 A 
ATOM     11  C   UNL     1      -1.938  -1.540  -0.329  1.00  0.00     0.103 A 
ATOM     12  C   UNL     1      -0.555  -1.349  -0.340  1.00  0.00     0.143 A 
ATOM     13  O   UNL     1       0.416  -2.333  -0.507  1.00  0.00    -0.483 OA
ATOM     14  C   UNL     1       1.642  -1.726  -0.137  1.00  0.00     0.218 C 
ATOM     15  C   UNL     1       2.932  -2.264  -0.659  1.00  0.00     0.065 C 
ATOM     16  C   UNL     1       4.043  -1.529  -0.422  1.00  0.00     0.129 C 
ENDROOT
BRANCH   1  17
ATOM     17  C   UNL     1       5.037   0.452   0.744  1.00  0.00     0.104 C 
ATOM     18  C   UNL     1       5.008   1.838   1.333  1.00  0.00     0.087 C 
BRANCH  17  19
ATOM     19  O   UNL     1       6.261  -0.221   0.740  1.00  0.00    -0.512 OA
ATOM     20  H   UNL     1       7.105   0.195   1.117  1.00  0.00     0.293 HD
ENDBRANCH  17  19
ENDBRANCH   1  17
BRANCH  16  21
ATOM     21  O   UNL     1       5.283  -2.020  -0.834  1.00  0.00    -0.507 OA
ATOM     22  H   UNL     1       5.379  -2.921  -1.289  1.00  0.00     0.293 HD
ENDBRANCH  16  21
BRANCH   7  23
ATOM     23  O   UNL     1      -0.159   2.312  -0.133  1.00  0.00    -0.426 OA
BRANCH  23  24
ATOM     24  C   UNL     1      -0.292   3.227   0.917  1.00  0.00     0.308 C 
ATOM     25  C   UNL     1       0.309   4.584   0.786  1.00  0.00     0.139 C 
ATOM     26  O   UNL     1      -0.847   2.892   1.999  1.00  0.00    -0.252 OA
ENDBRANCH  23  24
ENDBRANCH   7  23
BRANCH  11  27
ATOM     27  C   UNL     1      -2.487  -2.900  -0.536  1.00  0.00     0.167 C 
ATOM     28  C   UNL     1      -3.664  -3.149  -1.429  1.00  0.00     0.094 C 
ATOM     29  O   UNL     1      -1.937  -3.884   0.028  1.00  0.00    -0.294 OA
ENDBRANCH  11  27
BRANCH  10  30
ATOM     30  O   UNL     1      -4.151  -0.518  -0.032  1.00  0.00    -0.425 OA
BRANCH  30  31
ATOM     31  C   UNL     1      -4.760  -1.236   1.003  1.00  0.00     0.308 C 
ATOM     32  C   UNL     1      -6.242  -1.395   1.010  1.00  0.00     0.139 C 
ATOM     33  O   UNL     1      -4.078  -1.698   1.957  1.00  0.00    -0.252 OA
ENDBRANCH  30  31
ENDBRANCH  10  30
TORSDOF 8
