REMARK SMILES NC(=O)Nc1nnc(-c2ccccc2)[nH]1
REMARK SMILES IDX 15 1 5 2 6 3 7 4 8 5 4 7 2 8 1 9 3 11 9 14 10 15 14 16 11 17
REMARK SMILES IDX 13 18 12 19
REMARK H PARENT 15 6 4 10 1 12 1 13
ROOT
ATOM      1  N   UNL     1       0.835  -0.123  -0.055  1.00  0.00    -0.307 N 
ATOM      2  C   UNL     1       1.755  -1.091  -0.227  1.00  0.00     0.230 A 
ATOM      3  N   UNL     1       1.189  -2.296  -0.419  1.00  0.00    -0.111 NA
ATOM      4  N   UNL     1      -0.120  -2.113  -0.356  1.00  0.00    -0.128 NA
ATOM      5  C   UNL     1      -0.330  -0.798  -0.135  1.00  0.00     0.162 A 
ATOM      6  H   UNL     1       0.987   0.903   0.050  1.00  0.00     0.171 HD
ENDROOT
BRANCH   2   7
ATOM      7  N   UNL     1       3.173  -0.878  -0.281  1.00  0.00    -0.277 N 
ATOM      8  C   UNL     1       3.843   0.268   0.263  1.00  0.00     0.318 C 
ATOM      9  N   UNL     1       5.225   0.482  -0.019  1.00  0.00    -0.351 N 
ATOM     10  H   UNL     1       3.759  -1.634  -0.702  1.00  0.00     0.175 HD
ATOM     11  O   UNL     1       3.235   1.073   1.017  1.00  0.00    -0.249 OA
ATOM     12  H   UNL     1       5.725   1.305   0.385  1.00  0.00     0.161 HD
ATOM     13  H   UNL     1       5.750  -0.178  -0.636  1.00  0.00     0.161 HD
ENDBRANCH   2   7
BRANCH   5  14
ATOM     14  C   UNL     1      -1.679  -0.191  -0.023  1.00  0.00     0.019 A 
ATOM     15  C   UNL     1      -2.823  -0.976  -0.260  1.00  0.00     0.012 A 
ATOM     16  C   UNL     1      -1.847   1.164   0.325  1.00  0.00     0.012 A 
ATOM     17  C   UNL     1      -4.101  -0.419  -0.157  1.00  0.00     0.001 A 
ATOM     18  C   UNL     1      -3.128   1.716   0.427  1.00  0.00     0.001 A 
ATOM     19  C   UNL     1      -4.253   0.926   0.185  1.00  0.00     0.000 A 
ENDBRANCH   5  14
TORSDOF 2
