REMARK SMILES O=c1oc(Cl)cc2oc(=Nc3cccc(Cl)c3)nc(O)c12
REMARK SMILES IDX 19 1 18 2 9 3 8 4 7 5 6 6 4 7 5 8 3 9 2 10 1 11 21 12 20 13
REMARK SMILES IDX 10 15 11 16 12 17 17 18 13 19 15 20 14 21 16 22
REMARK H PARENT 20 14
ROOT
ATOM      1  C   UNL     1       1.532  -0.242  -1.370  1.00  0.00     0.234 A 
ATOM      2  N   UNL     1       0.299  -0.071  -0.830  1.00  0.00    -0.158 NA
ATOM      3  C   UNL     1       0.122   0.138   0.501  1.00  0.00     0.325 A 
ATOM      4  O   UNL     1       1.175   0.193   1.302  1.00  0.00    -0.423 OA
ATOM      5  C   UNL     1       2.413   0.025   0.857  1.00  0.00     0.155 A 
ATOM      6  C   UNL     1       3.473   0.085   1.759  1.00  0.00     0.108 A 
ATOM      7  C   UNL     1       4.769  -0.113   1.290  1.00  0.00     0.201 A 
ATOM      8  Cl  UNL     1       6.125  -0.039   2.397  1.00  0.00    -0.043 Cl
ATOM      9  O   UNL     1       4.986  -0.364   0.005  1.00  0.00    -0.410 OA
ATOM     10  C   UNL     1       4.012  -0.432  -0.899  1.00  0.00     0.353 A 
ATOM     11  O   UNL     1       4.326  -0.705  -2.085  1.00  0.00    -0.245 OA
ATOM     12  C   UNL     1       2.663  -0.219  -0.512  1.00  0.00     0.165 A 
ENDROOT
BRANCH   1  13
ATOM     13  O   UNL     1       1.599  -0.418  -2.755  1.00  0.00    -0.492 OA
ATOM     14  H   UNL     1       2.443  -0.410  -3.306  1.00  0.00     0.295 HD
ENDBRANCH   1  13
BRANCH   3  15
ATOM     15  N   UNL     1      -1.065   0.317   1.004  1.00  0.00    -0.195 NA
BRANCH  15  16
ATOM     16  C   UNL     1      -2.320   0.240   0.308  1.00  0.00     0.070 A 
ATOM     17  C   UNL     1      -2.568  -0.733  -0.680  1.00  0.00     0.028 A 
ATOM     18  C   UNL     1      -3.354   1.107   0.688  1.00  0.00     0.049 A 
ATOM     19  C   UNL     1      -3.816  -0.796  -1.308  1.00  0.00     0.004 A 
ATOM     20  C   UNL     1      -4.602   1.042   0.058  1.00  0.00     0.043 A 
ATOM     21  C   UNL     1      -4.830   0.094  -0.944  1.00  0.00     0.020 A 
ATOM     22  Cl  UNL     1      -5.881   2.147   0.528  1.00  0.00    -0.084 Cl
ENDBRANCH  15  16
ENDBRANCH   3  15
TORSDOF 3
