REMARK SMILES CCCc1cc(=O)oc2c3c(c4c(c12)OC(C)(C)C=C4)O[C@H](C)[C@@H](C)[C@H]3O
REMARK SMILES IDX 4 1 5 2 6 3 7 4 8 5 9 6 10 7 11 8 12 9 13 10 14 11 15 12
REMARK SMILES IDX 16 13 17 14 18 15 19 16 20 17 21 18 22 19 23 20 24 21 25 22
REMARK SMILES IDX 26 23 3 24 2 25 1 26 27 27
REMARK H PARENT 27 28
ROOT
ATOM      1  C   UNL     1       1.854  -1.798   0.152  1.00  0.00    -0.026 A 
ATOM      2  C   UNL     1       1.679  -3.190   0.014  1.00  0.00     0.098 A 
ATOM      3  C   UNL     1       0.406  -3.718  -0.167  1.00  0.00     0.336 A 
ATOM      4  O   UNL     1       0.253  -4.961  -0.294  1.00  0.00    -0.246 OA
ATOM      5  O   UNL     1      -0.650  -2.924  -0.209  1.00  0.00    -0.422 OA
ATOM      6  C   UNL     1      -0.573  -1.604  -0.079  1.00  0.00     0.152 A 
ATOM      7  C   UNL     1      -1.761  -0.851  -0.136  1.00  0.00     0.067 A 
ATOM      8  C   UNL     1      -1.709   0.547  -0.030  1.00  0.00     0.140 A 
ATOM      9  C   UNL     1      -0.482   1.189   0.173  1.00  0.00     0.060 A 
ATOM     10  C   UNL     1       0.709   0.447   0.244  1.00  0.00     0.142 A 
ATOM     11  C   UNL     1       0.687  -0.969   0.113  1.00  0.00     0.064 A 
ATOM     12  O   UNL     1       1.901   1.146   0.475  1.00  0.00    -0.482 OA
ATOM     13  C   UNL     1       2.059   2.551   0.246  1.00  0.00     0.122 C 
ATOM     14  C   UNL     1       3.107   3.081   1.231  1.00  0.00     0.061 C 
ATOM     15  C   UNL     1       2.539   2.764  -1.195  1.00  0.00     0.061 C 
ATOM     16  C   UNL     1       0.753   3.285   0.450  1.00  0.00     0.021 C 
ATOM     17  C   UNL     1      -0.419   2.654   0.358  1.00  0.00     0.015 C 
ATOM     18  O   UNL     1      -2.885   1.308  -0.096  1.00  0.00    -0.489 OA
ATOM     19  C   UNL     1      -4.152   0.770  -0.473  1.00  0.00     0.176 C 
ATOM     20  C   UNL     1      -5.243   1.710   0.045  1.00  0.00     0.053 C 
ATOM     21  C   UNL     1      -4.296  -0.670   0.077  1.00  0.00     0.060 C 
ATOM     22  C   UNL     1      -5.627  -1.327  -0.327  1.00  0.00     0.015 C 
ATOM     23  C   UNL     1      -3.094  -1.541  -0.372  1.00  0.00     0.158 C 
ENDROOT
BRANCH   1  24
ATOM     24  C   UNL     1       3.253  -1.210   0.328  1.00  0.00     0.036 C 
BRANCH  24  25
ATOM     25  C   UNL     1       4.426  -2.205   0.304  1.00  0.00     0.001 C 
ATOM     26  C   UNL     1       5.761  -1.483   0.466  1.00  0.00     0.004 C 
ENDBRANCH  24  25
ENDBRANCH   1  24
BRANCH  23  27
ATOM     27  O   UNL     1      -3.209  -1.932  -1.720  1.00  0.00    -0.388 OA
ATOM     28  H   UNL     1      -3.057  -1.131  -2.286  1.00  0.00     0.211 HD
ENDBRANCH  23  27
TORSDOF 3
