REMARK SMILES N=c1cc(Nc2ccc(Br)cc2)[nH]c(=N)[nH]1
REMARK SMILES IDX 16 1 2 2 3 3 4 4 13 5 14 6 1 9 15 11 5 13 6 15 7 16 12 17
REMARK SMILES IDX 8 18 11 19 9 20 10 21
REMARK H PARENT 16 7 13 8 1 10 15 12 5 14
ROOT
ATOM      1  N   UNL     1      -3.453  -0.136   0.852  1.00  0.00    -0.311 N 
ATOM      2  C   UNL     1      -2.431   0.662   1.263  1.00  0.00     0.128 A 
ATOM      3  C   UNL     1      -1.115   0.337   0.915  1.00  0.00     0.091 A 
ATOM      4  C   UNL     1      -0.884  -0.803   0.134  1.00  0.00     0.114 A 
ATOM      5  N   UNL     1      -1.937  -1.585  -0.232  1.00  0.00    -0.312 N 
ATOM      6  C   UNL     1      -3.215  -1.256   0.113  1.00  0.00     0.199 A 
ATOM      7  H   UNL     1      -4.436   0.110   1.113  1.00  0.00     0.171 HD
ATOM      8  H   UNL     1      -1.756  -2.446  -0.798  1.00  0.00     0.171 HD
ENDROOT
BRANCH   2   9
ATOM      9  N   UNL     1      -2.684   1.715   1.977  1.00  0.00    -0.284 NA
ATOM     10  H   UNL     1      -1.933   2.357   2.318  1.00  0.00     0.189 HD
ENDBRANCH   2   9
BRANCH   6  11
ATOM     11  N   UNL     1      -4.209  -2.003  -0.256  1.00  0.00    -0.269 NA
ATOM     12  H   UNL     1      -4.072  -2.870  -0.822  1.00  0.00     0.191 HD
ENDBRANCH   6  11
BRANCH   4  13
ATOM     13  N   UNL     1       0.451  -1.199  -0.226  1.00  0.00    -0.342 N 
ATOM     14  H   UNL     1       0.643  -2.222  -0.323  1.00  0.00     0.168 HD
BRANCH  13  15
ATOM     15  C   UNL     1       1.534  -0.285  -0.468  1.00  0.00     0.040 A 
ATOM     16  C   UNL     1       1.308   0.987  -1.026  1.00  0.00     0.027 A 
ATOM     17  C   UNL     1       2.852  -0.692  -0.206  1.00  0.00     0.027 A 
ATOM     18  C   UNL     1       2.381   1.847  -1.278  1.00  0.00     0.018 A 
ATOM     19  C   UNL     1       3.923   0.170  -0.459  1.00  0.00     0.018 A 
ATOM     20  C   UNL     1       3.688   1.442  -0.991  1.00  0.00     0.018 A 
ATOM     21  Br  UNL     1       5.152   2.618  -1.338  1.00  0.00    -0.051 Br
ENDBRANCH  13  15
ENDBRANCH   4  13
TORSDOF 4
