REMARK SMILES CC(=O)Oc1c(C)c(OC(C)=O)c2c(c1C(C)=O)O[C@H]1CC(=O)C(=C(C)O)C(=O)[C@]21C
REMARK SMILES IDX 24 1 22 2 23 3 21 4 20 5 19 6 14 7 15 8 5 9 6 10 7 11 8 12
REMARK SMILES IDX 13 13 30 14 31 15 28 16 29 17 25 18 26 19 27 20 9 22 10 23
REMARK SMILES IDX 11 24 12 25 16 26 17 27 18 28 4 29 2 30 1 31 3 32
REMARK H PARENT 27 21
ROOT
ATOM      1  C   UNL     1       3.894   0.007   0.018  1.00  0.00     0.099 C 
ATOM      2  C   UNL     1       4.033  -1.439  -0.449  1.00  0.00     0.173 C 
ATOM      3  O   UNL     1       5.149  -1.895  -0.814  1.00  0.00    -0.294 OA
ATOM      4  C   UNL     1       2.831  -2.367  -0.586  1.00  0.00     0.128 C 
ATOM      5  C   UNL     1       1.634  -1.736   0.109  1.00  0.00     0.199 C 
ATOM      6  O   UNL     1       0.374  -2.380   0.006  1.00  0.00    -0.487 OA
ATOM      7  C   UNL     1      -0.591  -1.399   0.208  1.00  0.00     0.142 A 
ATOM      8  C   UNL     1      -1.960  -1.597   0.430  1.00  0.00     0.103 A 
ATOM      9  C   UNL     1      -2.776  -0.446   0.568  1.00  0.00     0.152 A 
ATOM     10  C   UNL     1      -2.206   0.860   0.498  1.00  0.00     0.036 A 
ATOM     11  C   UNL     1      -3.054   2.076   0.775  1.00  0.00     0.052 C 
ATOM     12  C   UNL     1      -0.828   1.009   0.198  1.00  0.00     0.145 A 
ATOM     13  C   UNL     1      -0.035  -0.137   0.130  1.00  0.00     0.056 A 
ATOM     14  C   UNL     1       1.378  -0.291  -0.361  1.00  0.00     0.101 C 
ATOM     15  C   UNL     1       1.367  -0.116  -1.901  1.00  0.00     0.029 C 
ATOM     16  C   UNL     1       2.494   0.513   0.239  1.00  0.00     0.184 C 
ATOM     17  O   UNL     1       2.245   1.485   1.002  1.00  0.00    -0.293 OA
ENDROOT
BRANCH   1  18
ATOM     18  C   UNL     1       4.971   0.811   0.247  1.00  0.00     0.104 C 
ATOM     19  C   UNL     1       6.376   0.287   0.334  1.00  0.00     0.087 C 
BRANCH  18  20
ATOM     20  O   UNL     1       4.837   2.196   0.389  1.00  0.00    -0.512 OA
ATOM     21  H   UNL     1       4.029   2.717   0.075  1.00  0.00     0.293 HD
ENDBRANCH  18  20
ENDBRANCH   1  18
BRANCH  12  22
ATOM     22  O   UNL     1      -0.242   2.261  -0.019  1.00  0.00    -0.426 OA
BRANCH  22  23
ATOM     23  C   UNL     1      -0.658   3.143  -1.021  1.00  0.00     0.308 C 
ATOM     24  C   UNL     1      -0.051   4.502  -1.096  1.00  0.00     0.139 C 
ATOM     25  O   UNL     1      -1.479   2.776  -1.905  1.00  0.00    -0.252 OA
ENDBRANCH  22  23
ENDBRANCH  12  22
BRANCH   8  26
ATOM     26  C   UNL     1      -2.537  -2.966   0.504  1.00  0.00     0.167 C 
ATOM     27  C   UNL     1      -1.730  -4.141   0.967  1.00  0.00     0.094 C 
ATOM     28  O   UNL     1      -3.728  -3.165   0.143  1.00  0.00    -0.294 OA
ENDBRANCH   8  26
BRANCH   9  29
ATOM     29  O   UNL     1      -4.147  -0.608   0.813  1.00  0.00    -0.425 OA
BRANCH  29  30
ATOM     30  C   UNL     1      -5.139  -0.158  -0.064  1.00  0.00     0.308 C 
ATOM     31  C   UNL     1      -6.572  -0.264   0.334  1.00  0.00     0.139 C 
ATOM     32  O   UNL     1      -4.840   0.270  -1.212  1.00  0.00    -0.252 OA
ENDBRANCH  29  30
ENDBRANCH   9  29
TORSDOF 7
