REMARK SMILES OC1=C[C@H](c2ccc(O)cc2)Oc2cc(O)cc(O)c21
REMARK SMILES IDX 2 1 3 2 4 3 12 4 13 5 14 6 15 7 17 8 18 9 20 10 1 11 5 13
REMARK SMILES IDX 6 14 11 15 7 16 10 17 8 18 9 19 19 21 16 23
REMARK H PARENT 1 12 9 20 19 22 16 24
ROOT
ATOM      1  C   UNL     1       1.142  -1.255  -1.404  1.00  0.00     0.130 C 
ATOM      2  C   UNL     1      -0.025  -1.845  -1.117  1.00  0.00     0.069 C 
ATOM      3  C   UNL     1      -0.660  -1.739   0.248  1.00  0.00     0.230 C 
ATOM      4  O   UNL     1       0.291  -1.356   1.249  1.00  0.00    -0.480 OA
ATOM      5  C   UNL     1       1.423  -0.587   0.958  1.00  0.00     0.139 A 
ATOM      6  C   UNL     1       2.139   0.011   1.997  1.00  0.00     0.093 A 
ATOM      7  C   UNL     1       3.228   0.837   1.712  1.00  0.00     0.123 A 
ATOM      8  C   UNL     1       3.574   1.096   0.380  1.00  0.00     0.093 A 
ATOM      9  C   UNL     1       2.849   0.518  -0.670  1.00  0.00     0.133 A 
ATOM     10  C   UNL     1       1.823  -0.415  -0.380  1.00  0.00     0.100 A 
ENDROOT
BRANCH   1  11
ATOM     11  O   UNL     1       1.731  -1.541  -2.636  1.00  0.00    -0.507 OA
ATOM     12  H   UNL     1       2.716  -1.388  -2.813  1.00  0.00     0.293 HD
ENDBRANCH   1  11
BRANCH   3  13
ATOM     13  C   UNL     1      -1.821  -0.770   0.221  1.00  0.00    -0.003 A 
ATOM     14  C   UNL     1      -3.136  -1.242   0.379  1.00  0.00     0.012 A 
ATOM     15  C   UNL     1      -1.611   0.607   0.021  1.00  0.00     0.012 A 
ATOM     16  C   UNL     1      -4.216  -0.355   0.347  1.00  0.00     0.046 A 
ATOM     17  C   UNL     1      -2.694   1.491  -0.011  1.00  0.00     0.046 A 
ATOM     18  C   UNL     1      -3.999   1.012   0.153  1.00  0.00     0.115 A 
BRANCH  18  19
ATOM     19  O   UNL     1      -5.085   1.883   0.124  1.00  0.00    -0.508 OA
ATOM     20  H   UNL     1      -4.961   2.879  -0.015  1.00  0.00     0.293 HD
ENDBRANCH  18  19
ENDBRANCH   3  13
BRANCH   9  21
ATOM     21  O   UNL     1       3.132   0.944  -1.968  1.00  0.00    -0.507 OA
ATOM     22  H   UNL     1       2.482   0.828  -2.734  1.00  0.00     0.293 HD
ENDBRANCH   9  21
BRANCH   7  23
ATOM     23  O   UNL     1       3.944   1.416   2.757  1.00  0.00    -0.508 OA
ATOM     24  H   UNL     1       4.735   2.026   2.584  1.00  0.00     0.293 HD
ENDBRANCH   7  23
TORSDOF 5
