REMARK SMILES Cc1nn(-c2ccccc2)nc1C(=O)Nc1ccc2[nH]ncc2c1
REMARK SMILES IDX 13 1 14 2 15 3 12 5 2 6 3 7 4 8 11 9 1 10 5 11 6 12 10 13
REMARK SMILES IDX 7 14 9 15 8 16 16 17 17 18 24 19 18 20 23 21 19 22 22 23
REMARK SMILES IDX 20 24 21 25
REMARK H PARENT 15 4 20 26
ROOT
ATOM      1  C   UNL     1       0.495  -0.448  -0.142  1.00  0.00     0.278 C 
ATOM      2  O   UNL     1       0.662  -1.659  -0.449  1.00  0.00    -0.267 OA
ATOM      3  N   UNL     1       1.616   0.452  -0.101  1.00  0.00    -0.321 N 
ATOM      4  H   UNL     1       1.457   1.445   0.173  1.00  0.00     0.170 HD
ENDROOT
BRANCH   1   5
ATOM      5  C   UNL     1      -0.873   0.015   0.155  1.00  0.00     0.174 A 
ATOM      6  C   UNL     1      -1.296   1.000   1.036  1.00  0.00     0.093 A 
ATOM      7  N   UNL     1      -2.640   1.043   0.988  1.00  0.00    -0.153 NA
ATOM      8  N   UNL     1      -3.010   0.111   0.122  1.00  0.00    -0.151 N 
ATOM      9  N   UNL     1      -1.972  -0.535  -0.392  1.00  0.00    -0.143 NA
ATOM     10  C   UNL     1      -0.476   1.859   1.944  1.00  0.00     0.071 C 
BRANCH   8  11
ATOM     11  C   UNL     1      -4.380  -0.174  -0.215  1.00  0.00     0.086 A 
ATOM     12  C   UNL     1      -5.428   0.554   0.378  1.00  0.00     0.030 A 
ATOM     13  C   UNL     1      -4.692  -1.186  -1.143  1.00  0.00     0.030 A 
ATOM     14  C   UNL     1      -6.758   0.275   0.049  1.00  0.00     0.002 A 
ATOM     15  C   UNL     1      -6.024  -1.461  -1.468  1.00  0.00     0.002 A 
ATOM     16  C   UNL     1      -7.056  -0.731  -0.873  1.00  0.00     0.000 A 
ENDBRANCH   8  11
ENDBRANCH   1   5
BRANCH   3  17
ATOM     17  C   UNL     1       2.975   0.055  -0.345  1.00  0.00     0.042 A 
ATOM     18  C   UNL     1       3.305  -0.848  -1.395  1.00  0.00     0.028 A 
ATOM     19  C   UNL     1       4.006   0.625   0.434  1.00  0.00     0.038 A 
ATOM     20  C   UNL     1       4.644  -1.208  -1.640  1.00  0.00     0.030 A 
ATOM     21  C   UNL     1       5.315   0.243   0.161  1.00  0.00     0.022 A 
ATOM     22  C   UNL     1       5.622  -0.639  -0.832  1.00  0.00     0.065 A 
ATOM     23  C   UNL     1       6.521   0.596   0.725  1.00  0.00     0.143 A 
ATOM     24  N   UNL     1       6.951  -0.818  -0.875  1.00  0.00    -0.278 N 
ATOM     25  N   UNL     1       7.506  -0.068   0.071  1.00  0.00    -0.183 NA
ATOM     26  H   UNL     1       7.481  -1.432  -1.533  1.00  0.00     0.190 HD
ENDBRANCH   3  17
TORSDOF 3
