REMARK SMILES CC(=O)OCCn1c2nc(O)nc(=O)c-2nc2cc(C)c(C)cc21
REMARK SMILES IDX 6 1 7 2 10 3 9 4 12 5 8 6 13 7 15 8 24 9 16 10 23 11 17 12
REMARK SMILES IDX 21 13 18 14 19 15 14 16 22 17 20 18 11 19 5 21 4 22 2 23
REMARK SMILES IDX 1 24 3 25
REMARK H PARENT 11 20
ROOT
ATOM      1  C   UNL     1       1.218   0.623   0.989  1.00  0.00     0.166 C 
ENDROOT
BRANCH   1   2
ATOM      2  N   UNL     1       0.004   1.028   0.245  1.00  0.00    -0.319 N 
ATOM      3  C   UNL     1       0.946   4.387  -0.789  1.00  0.00     0.319 A 
ATOM      4  N   UNL     1       1.007   3.146  -0.235  1.00  0.00    -0.175 NA
ATOM      5  N   UNL     1      -0.175   4.799  -1.442  1.00  0.00    -0.153 NA
ATOM      6  C   UNL     1      -0.041   2.282  -0.315  1.00  0.00     0.170 A 
ATOM      7  C   UNL     1      -1.266   4.001  -1.573  1.00  0.00     0.304 A 
ATOM      8  C   UNL     1      -1.249   2.719  -1.026  1.00  0.00     0.174 A 
ATOM      9  C   UNL     1      -1.076   0.173   0.072  1.00  0.00     0.069 A 
ATOM     10  N   UNL     1      -2.295   1.874  -1.136  1.00  0.00    -0.237 NA
ATOM     11  C   UNL     1      -1.068  -1.162   0.545  1.00  0.00     0.032 A 
ATOM     12  C   UNL     1      -2.240   0.624  -0.613  1.00  0.00     0.088 A 
ATOM     13  C   UNL     1      -2.177  -2.009   0.373  1.00  0.00    -0.046 A 
ATOM     14  C   UNL     1      -3.345  -0.216  -0.771  1.00  0.00     0.034 A 
ATOM     15  C   UNL     1      -3.334  -1.524  -0.272  1.00  0.00    -0.046 A 
ATOM     16  O   UNL     1      -2.281   4.424  -2.188  1.00  0.00    -0.265 OA
ATOM     17  C   UNL     1      -2.117  -3.420   0.903  1.00  0.00     0.044 C 
ATOM     18  C   UNL     1      -4.545  -2.397  -0.472  1.00  0.00     0.044 C 
BRANCH   3  19
ATOM     19  O   UNL     1       2.035   5.245  -0.689  1.00  0.00    -0.479 OA
ATOM     20  H   UNL     1       2.880   4.960  -0.207  1.00  0.00     0.297 HD
ENDBRANCH   3  19
ENDBRANCH   1   2
BRANCH   1  21
ATOM     21  C   UNL     1       2.191  -0.116   0.072  1.00  0.00     0.254 C 
BRANCH  21  22
ATOM     22  O   UNL     1       3.335  -0.518   0.818  1.00  0.00    -0.464 OA
BRANCH  22  23
ATOM     23  C   UNL     1       4.401  -1.217   0.244  1.00  0.00     0.302 C 
ATOM     24  C   UNL     1       5.575  -1.587   1.084  1.00  0.00     0.139 C 
ATOM     25  O   UNL     1       4.398  -1.500  -0.985  1.00  0.00    -0.253 OA
ENDBRANCH  22  23
ENDBRANCH  21  22
ENDBRANCH   1  21
TORSDOF 5
