REMARK SMILES O=C1c2ccccc2C(=O)c2[nH]cnc21
REMARK SMILES IDX 1 1 2 2 3 3 4 4 5 5 6 6 7 7 8 8 9 9 10 10 11 11 12 12 13 13
REMARK SMILES IDX 14 14 15 15
REMARK H PARENT 12 16
ROOT
ATOM      1  O   UNL     1       0.277  -2.842  -0.357  1.00  0.00    -0.287 OA
ATOM      2  C   UNL     1       0.377  -1.595  -0.203  1.00  0.00     0.214 C 
ATOM      3  C   UNL     1      -0.826  -0.723  -0.078  1.00  0.00     0.035 A 
ATOM      4  C   UNL     1      -2.117  -1.274  -0.129  1.00  0.00     0.013 A 
ATOM      5  C   UNL     1      -3.241  -0.453  -0.011  1.00  0.00     0.001 A 
ATOM      6  C   UNL     1      -3.092   0.924   0.158  1.00  0.00     0.001 A 
ATOM      7  C   UNL     1      -1.817   1.493   0.211  1.00  0.00     0.013 A 
ATOM      8  C   UNL     1      -0.674   0.685   0.095  1.00  0.00     0.035 A 
ATOM      9  C   UNL     1       0.689   1.287   0.150  1.00  0.00     0.212 C 
ATOM     10  O   UNL     1       0.861   2.526   0.302  1.00  0.00    -0.287 OA
ATOM     11  C   UNL     1       1.836   0.385   0.022  1.00  0.00     0.118 A 
ATOM     12  N   UNL     1       3.140   0.688   0.042  1.00  0.00    -0.341 N 
ATOM     13  C   UNL     1       3.760  -0.504  -0.115  1.00  0.00     0.198 A 
ATOM     14  N   UNL     1       2.900  -1.546  -0.233  1.00  0.00    -0.233 NA
ATOM     15  C   UNL     1       1.694  -0.956  -0.142  1.00  0.00     0.140 A 
ATOM     16  H   UNL     1       3.581   1.628   0.153  1.00  0.00     0.168 HD
ENDROOT
TORSDOF 0
