REMARK SMILES O=C([O-])[C@H](Cc1c[nH]c2ccccc12)N1C(=O)c2ccccc2C1=O
REMARK SMILES IDX 4 1 2 2 1 3 3 4 5 5 6 6 7 7 14 8 8 9 13 10 9 11 12 12 10 13
REMARK SMILES IDX 11 14 15 16 16 17 24 18 18 19 23 20 19 21 22 22 20 23 21 24
REMARK SMILES IDX 17 25 25 26
REMARK H PARENT 8 15
ROOT
ATOM      1  C   UNL     1       0.066  -0.535   0.931  1.00  0.00     0.144 C 
ENDROOT
BRANCH   1   2
ATOM      2  C   UNL     1      -0.100  -1.648   1.932  1.00  0.00     0.065 C 
ATOM      3  O   UNL     1       0.027  -2.854   1.589  1.00  0.00    -0.548 OA
ATOM      4  O   UNL     1      -0.348  -1.342   3.264  1.00  0.00    -0.548 OA
ENDBRANCH   1   2
BRANCH   1   5
ATOM      5  C   UNL     1      -0.485  -0.893  -0.462  1.00  0.00     0.069 C 
BRANCH   5   6
ATOM      6  C   UNL     1      -1.976  -1.075  -0.437  1.00  0.00    -0.020 A 
ATOM      7  C   UNL     1      -2.665  -2.282  -0.370  1.00  0.00     0.087 A 
ATOM      8  C   UNL     1      -2.942  -0.089  -0.396  1.00  0.00     0.003 A 
ATOM      9  N   UNL     1      -3.998  -2.061  -0.304  1.00  0.00    -0.361 N 
ATOM     10  C   UNL     1      -2.841   1.302  -0.409  1.00  0.00     0.010 A 
ATOM     11  C   UNL     1      -4.154  -0.725  -0.319  1.00  0.00     0.046 A 
ATOM     12  C   UNL     1      -4.032   2.046  -0.345  1.00  0.00     0.001 A 
ATOM     13  C   UNL     1      -5.351  -0.013  -0.253  1.00  0.00     0.026 A 
ATOM     14  C   UNL     1      -5.282   1.392  -0.268  1.00  0.00     0.002 A 
ATOM     15  H   UNL     1      -4.750  -2.783  -0.241  1.00  0.00     0.166 HD
ENDBRANCH   5   6
ENDBRANCH   1   5
BRANCH   1  16
ATOM     16  N   UNL     1       1.477  -0.149   0.833  1.00  0.00    -0.265 N 
ATOM     17  C   UNL     1       1.970   1.189   0.706  1.00  0.00     0.262 C 
ATOM     18  C   UNL     1       2.581  -0.971   0.432  1.00  0.00     0.262 C 
ATOM     19  C   UNL     1       3.365   1.175   0.282  1.00  0.00     0.053 A 
ATOM     20  C   UNL     1       3.737  -0.141   0.116  1.00  0.00     0.053 A 
ATOM     21  C   UNL     1       4.252   2.221   0.036  1.00  0.00     0.015 A 
ATOM     22  C   UNL     1       5.019  -0.489  -0.306  1.00  0.00     0.015 A 
ATOM     23  C   UNL     1       5.554   1.897  -0.386  1.00  0.00     0.001 A 
ATOM     24  C   UNL     1       5.936   0.549  -0.557  1.00  0.00     0.001 A 
ATOM     25  O   UNL     1       1.279   2.222   0.910  1.00  0.00    -0.269 OA
ATOM     26  O   UNL     1       2.539  -2.226   0.339  1.00  0.00    -0.269 OA
ENDBRANCH   1  16
TORSDOF 4
