REMARK SMILES Oc1nc(S)c2ncn(-c3ccccc3)c2n1
REMARK SMILES IDX 4 1 3 2 2 3 17 4 16 5 6 6 7 7 8 8 9 9 5 10 1 12 10 14 11 15
REMARK SMILES IDX 15 16 12 17 14 18 13 19
REMARK H PARENT 5 11 1 13
ROOT
ATOM      1  C   UNL     1      -3.381  -0.274   0.922  1.00  0.00     0.128 A 
ATOM      2  N   UNL     1      -3.698   0.435  -0.201  1.00  0.00    -0.187 NA
ATOM      3  C   UNL     1      -2.726   0.897  -1.053  1.00  0.00     0.317 A 
ATOM      4  N   UNL     1      -1.407   0.652  -0.793  1.00  0.00    -0.175 NA
ATOM      5  C   UNL     1      -1.095  -0.066   0.314  1.00  0.00     0.172 A 
ATOM      6  C   UNL     1      -2.038  -0.518   1.173  1.00  0.00     0.140 A 
ATOM      7  N   UNL     1      -1.465  -1.149   2.214  1.00  0.00    -0.232 NA
ATOM      8  C   UNL     1      -0.137  -1.046   1.934  1.00  0.00     0.207 A 
ATOM      9  N   UNL     1       0.124  -0.388   0.772  1.00  0.00    -0.283 N 
ENDROOT
BRANCH   1  10
ATOM     10  S   UNL     1      -4.664  -0.850   2.026  1.00  0.00    -0.121 SA
ATOM     11  H   UNL     1      -4.787  -2.069   1.332  1.00  0.00     0.110 HD
ENDBRANCH   1  10
BRANCH   3  12
ATOM     12  O   UNL     1      -3.081   1.621  -2.186  1.00  0.00    -0.479 OA
ATOM     13  H   UNL     1      -4.053   1.814  -2.395  1.00  0.00     0.297 HD
ENDBRANCH   3  12
BRANCH   9  14
ATOM     14  C   UNL     1       1.414  -0.099   0.199  1.00  0.00     0.049 A 
ATOM     15  C   UNL     1       1.589  -0.058  -1.197  1.00  0.00     0.027 A 
ATOM     16  C   UNL     1       2.524   0.131   1.032  1.00  0.00     0.027 A 
ATOM     17  C   UNL     1       2.845   0.218  -1.744  1.00  0.00     0.002 A 
ATOM     18  C   UNL     1       3.779   0.408   0.479  1.00  0.00     0.002 A 
ATOM     19  C   UNL     1       3.939   0.453  -0.908  1.00  0.00     0.000 A 
ENDBRANCH   9  14
TORSDOF 3
