REMARK SMILES O=c1cccc2n1C[C@H]1C[C@@H]2C[N@H+]2CCCC[C@@H]12
REMARK SMILES IDX 12 1 13 2 14 3 18 4 11 5 10 6 6 7 9 8 5 9 7 10 8 11 4 12
REMARK SMILES IDX 2 13 3 14 1 15 15 16 16 17 17 18
REMARK H PARENT 13 19
ROOT
ATOM      1  C   UNL     1       1.313   2.220  -0.792  1.00  0.00     0.272 C 
ATOM      2  N   UNL     1       0.184   1.953  -1.720  1.00  0.00    -0.332 N 
ATOM      3  C   UNL     1       0.316   2.708  -2.991  1.00  0.00     0.262 C 
ATOM      4  C   UNL     1      -0.073   0.496  -1.927  1.00  0.00     0.189 C 
ATOM      5  C   UNL     1       1.260   1.350   0.499  1.00  0.00     0.092 C 
ATOM      6  C   UNL     1      -0.100   0.671   0.645  1.00  0.00     0.027 C 
ATOM      7  C   UNL     1       2.355   0.296   0.470  1.00  0.00     0.030 A 
ATOM      8  C   UNL     1      -0.246  -0.274  -0.550  1.00  0.00     0.068 C 
ATOM      9  C   UNL     1       3.658   0.682   0.822  1.00  0.00     0.022 A 
ATOM     10  N   UNL     1       2.113  -0.986   0.014  1.00  0.00    -0.312 N 
ATOM     11  C   UNL     1       0.738  -1.443  -0.301  1.00  0.00     0.135 C 
ATOM     12  C   UNL     1       4.699  -0.235   0.736  1.00  0.00     0.008 A 
ATOM     13  C   UNL     1       3.141  -1.897  -0.052  1.00  0.00     0.250 A 
ATOM     14  C   UNL     1       4.443  -1.529   0.299  1.00  0.00     0.072 A 
ATOM     15  O   UNL     1       2.929  -3.083  -0.428  1.00  0.00    -0.269 OA
ATOM     16  C   UNL     1       1.343   2.103  -3.956  1.00  0.00     0.062 C 
ATOM     17  C   UNL     1       1.024   0.637  -4.217  1.00  0.00     0.012 C 
ATOM     18  C   UNL     1       0.959  -0.133  -2.901  1.00  0.00     0.065 C 
ATOM     19  H   UNL     1      -0.675   2.359  -1.277  1.00  0.00     0.348 HD
ENDROOT
TORSDOF 0
