REMARK SMILES C=C(O)c1c(OC(C)=O)c(C)c(OC(C)=O)c2c1O[C@H]1CC(=O)C(=C(C)O)C(=O)[C@@]21C
REMARK SMILES IDX 24 1 22 2 23 3 21 4 20 5 19 6 18 7 4 8 5 9 10 10 11 11 12 12
REMARK SMILES IDX 17 13 30 14 31 15 28 16 29 17 25 18 26 19 27 20 13 22 14 23
REMARK SMILES IDX 15 24 16 25 2 26 1 27 3 28 6 30 7 31 8 32 9 33
REMARK H PARENT 27 21 3 29
ROOT
ATOM      1  C   UNL     1       3.673  -0.647  -0.967  1.00  0.00     0.099 C 
ATOM      2  C   UNL     1       3.546  -2.094  -1.250  1.00  0.00     0.173 C 
ATOM      3  O   UNL     1       4.553  -2.830  -1.435  1.00  0.00    -0.294 OA
ATOM      4  C   UNL     1       2.170  -2.678  -1.333  1.00  0.00     0.128 C 
ATOM      5  C   UNL     1       1.334  -2.299  -0.096  1.00  0.00     0.199 C 
ATOM      6  O   UNL     1      -0.046  -2.466  -0.405  1.00  0.00    -0.487 OA
ATOM      7  C   UNL     1      -0.758  -1.314  -0.146  1.00  0.00     0.142 A 
ATOM      8  C   UNL     1      -2.131  -1.145  -0.330  1.00  0.00     0.101 A 
ATOM      9  C   UNL     1      -2.709   0.090   0.062  1.00  0.00     0.152 A 
ATOM     10  C   UNL     1      -1.891   1.125   0.587  1.00  0.00     0.036 A 
ATOM     11  C   UNL     1      -2.537   2.399   1.071  1.00  0.00     0.052 C 
ATOM     12  C   UNL     1      -0.487   0.933   0.687  1.00  0.00     0.145 A 
ATOM     13  C   UNL     1       0.049  -0.311   0.317  1.00  0.00     0.056 A 
ATOM     14  C   UNL     1       1.477  -0.799   0.390  1.00  0.00     0.101 C 
ATOM     15  C   UNL     1       1.983  -0.751   1.844  1.00  0.00     0.029 C 
ATOM     16  C   UNL     1       2.424  -0.002  -0.495  1.00  0.00     0.184 C 
ATOM     17  O   UNL     1       2.152   1.181  -0.834  1.00  0.00    -0.293 OA
ENDROOT
BRANCH   1  18
ATOM     18  C   UNL     1       4.841   0.024  -1.118  1.00  0.00     0.104 C 
ATOM     19  C   UNL     1       4.988   1.476  -0.746  1.00  0.00     0.087 C 
BRANCH  18  20
ATOM     20  O   UNL     1       5.955  -0.633  -1.645  1.00  0.00    -0.512 OA
ATOM     21  H   UNL     1       6.840  -0.160  -1.781  1.00  0.00     0.293 HD
ENDBRANCH  18  20
ENDBRANCH   1  18
BRANCH  12  22
ATOM     22  O   UNL     1       0.363   1.926   1.192  1.00  0.00    -0.426 OA
BRANCH  22  23
ATOM     23  C   UNL     1       0.482   3.207   0.639  1.00  0.00     0.308 C 
ATOM     24  C   UNL     1       1.285   4.241   1.350  1.00  0.00     0.139 C 
ATOM     25  O   UNL     1      -0.073   3.492  -0.456  1.00  0.00    -0.252 OA
ENDBRANCH  22  23
ENDBRANCH  12  22
BRANCH   8  26
ATOM     26  C   UNL     1      -2.925  -2.237  -0.943  1.00  0.00     0.123 C 
ATOM     27  C   UNL     1      -3.726  -2.005  -1.982  1.00  0.00     0.059 C 
BRANCH  26  28
ATOM     28  O   UNL     1      -2.825  -3.536  -0.447  1.00  0.00    -0.508 OA
ATOM     29  H   UNL     1      -2.258  -3.750   0.365  1.00  0.00     0.293 HD
ENDBRANCH  26  28
ENDBRANCH   8  26
BRANCH   9  30
ATOM     30  O   UNL     1      -4.089   0.309  -0.051  1.00  0.00    -0.425 OA
BRANCH  30  31
ATOM     31  C   UNL     1      -5.050  -0.478   0.595  1.00  0.00     0.308 C 
ATOM     32  C   UNL     1      -6.492  -0.288   0.271  1.00  0.00     0.139 C 
ATOM     33  O   UNL     1      -4.709  -1.357   1.432  1.00  0.00    -0.252 OA
ENDBRANCH  30  31
ENDBRANCH   9  30
TORSDOF 8
