REMARK SMILES C=C(O)[C@@H]1C(=O)C[C@@H]2Oc3c(C(C)=O)c(OC(C)=O)c(C)c(OC(C)=O)c3[C@@]2(C)C1=O
REMARK SMILES IDX 4 1 5 2 6 3 7 4 8 5 9 6 10 7 11 8 15 9 20 10 21 11 22 12
REMARK SMILES IDX 27 13 28 14 29 15 30 16 31 17 2 18 1 19 3 20 23 22 24 23
REMARK SMILES IDX 25 24 26 25 12 26 13 27 14 28 16 29 17 30 18 31 19 32
REMARK H PARENT 3 21
ROOT
ATOM      1  C   UNL     1      -3.789   0.145  -1.113  1.00  0.00     0.189 C 
ATOM      2  C   UNL     1      -4.064  -1.351  -0.849  1.00  0.00     0.154 C 
ATOM      3  O   UNL     1      -5.216  -1.758  -0.896  1.00  0.00    -0.298 OA
ATOM      4  C   UNL     1      -2.957  -2.369  -0.595  1.00  0.00     0.123 C 
ATOM      5  C   UNL     1      -1.613  -1.685  -0.797  1.00  0.00     0.198 C 
ATOM      6  O   UNL     1      -0.436  -2.416  -0.500  1.00  0.00    -0.487 OA
ATOM      7  C   UNL     1       0.554  -1.482  -0.219  1.00  0.00     0.142 A 
ATOM      8  C   UNL     1       1.932  -1.717  -0.143  1.00  0.00     0.103 A 
ATOM      9  C   UNL     1       2.772  -0.616   0.157  1.00  0.00     0.152 A 
ATOM     10  C   UNL     1       2.211   0.662   0.453  1.00  0.00     0.036 A 
ATOM     11  C   UNL     1       3.091   1.770   0.979  1.00  0.00     0.052 C 
ATOM     12  C   UNL     1       0.810   0.861   0.338  1.00  0.00     0.145 A 
ATOM     13  C   UNL     1       0.011  -0.225  -0.033  1.00  0.00     0.055 A 
ATOM     14  C   UNL     1      -1.487  -0.378   0.009  1.00  0.00     0.097 C 
ATOM     15  C   UNL     1      -1.904  -0.506   1.495  1.00  0.00     0.029 C 
ATOM     16  C   UNL     1      -2.390   0.602  -0.699  1.00  0.00     0.165 C 
ATOM     17  O   UNL     1      -2.018   1.738  -0.949  1.00  0.00    -0.297 OA
ENDROOT
BRANCH   1  18
ATOM     18  C   UNL     1      -4.818   1.003  -0.412  1.00  0.00     0.103 C 
ATOM     19  C   UNL     1      -5.527   1.913  -1.085  1.00  0.00     0.055 C 
BRANCH  18  20
ATOM     20  O   UNL     1      -5.008   0.848   0.961  1.00  0.00    -0.512 OA
ATOM     21  H   UNL     1      -5.679   1.406   1.476  1.00  0.00     0.293 HD
ENDBRANCH  18  20
ENDBRANCH   1  18
BRANCH  12  22
ATOM     22  O   UNL     1       0.206   2.086   0.641  1.00  0.00    -0.426 OA
BRANCH  22  23
ATOM     23  C   UNL     1       0.510   3.280  -0.022  1.00  0.00     0.308 C 
ATOM     24  C   UNL     1      -0.081   4.559   0.465  1.00  0.00     0.139 C 
ATOM     25  O   UNL     1       1.211   3.276  -1.070  1.00  0.00    -0.252 OA
ENDBRANCH  22  23
ENDBRANCH  12  22
BRANCH   8  26
ATOM     26  C   UNL     1       2.496  -3.070  -0.395  1.00  0.00     0.167 C 
ATOM     27  C   UNL     1       1.722  -4.317  -0.092  1.00  0.00     0.094 C 
ATOM     28  O   UNL     1       3.643  -3.188  -0.903  1.00  0.00    -0.294 OA
ENDBRANCH   8  26
BRANCH   9  29
ATOM     29  O   UNL     1       4.159  -0.816   0.218  1.00  0.00    -0.425 OA
BRANCH  29  30
ATOM     30  C   UNL     1       5.070  -0.131  -0.593  1.00  0.00     0.308 C 
ATOM     31  C   UNL     1       6.532  -0.322  -0.372  1.00  0.00     0.139 C 
ATOM     32  O   UNL     1       4.670   0.588  -1.549  1.00  0.00    -0.252 OA
ENDBRANCH  29  30
ENDBRANCH   9  29
TORSDOF 7
