REMARK SMILES CC(C)NC(=O)c1ccc(C(C)C)cc1
REMARK SMILES IDX 7 1 8 2 9 3 10 4 14 5 15 6 5 7 4 8 6 10 2 11 1 12 3 13 11 14
REMARK SMILES IDX 12 15 13 16
REMARK H PARENT 4 9
ROOT
ATOM      1  C   UNL     1      -0.297   0.590  -0.602  1.00  0.00     0.039 A 
ATOM      2  C   UNL     1       0.224  -0.325   0.330  1.00  0.00     0.014 A 
ATOM      3  C   UNL     1       1.605  -0.480   0.478  1.00  0.00     0.005 A 
ATOM      4  C   UNL     1       2.497   0.281  -0.298  1.00  0.00    -0.045 A 
ATOM      5  C   UNL     1       1.977   1.204  -1.220  1.00  0.00     0.005 A 
ATOM      6  C   UNL     1       0.596   1.360  -1.367  1.00  0.00     0.014 A 
ENDROOT
BRANCH   1   7
ATOM      7  C   UNL     1      -1.760   0.769  -0.764  1.00  0.00     0.251 C 
ATOM      8  N   UNL     1      -2.679  -0.280  -0.417  1.00  0.00    -0.350 N 
ATOM      9  H   UNL     1      -2.309  -1.246  -0.270  1.00  0.00     0.164 HD
ATOM     10  O   UNL     1      -2.201   1.856  -1.230  1.00  0.00    -0.269 OA
BRANCH   8  11
ATOM     11  C   UNL     1      -4.129  -0.061  -0.368  1.00  0.00     0.076 C 
ATOM     12  C   UNL     1      -4.494   0.757   0.874  1.00  0.00     0.030 C 
ATOM     13  C   UNL     1      -4.872  -1.401  -0.360  1.00  0.00     0.030 C 
ENDBRANCH   8  11
ENDBRANCH   1   7
BRANCH   4  14
ATOM     14  C   UNL     1       3.999   0.124  -0.147  1.00  0.00     0.013 C 
ATOM     15  C   UNL     1       4.455   0.509   1.265  1.00  0.00     0.012 C 
ATOM     16  C   UNL     1       4.444  -1.300  -0.501  1.00  0.00     0.012 C 
ENDBRANCH   4  14
TORSDOF 3
