REMARK SMILES Cc1ccc(Nc2nnc(-c3ccc4c(c3)OCO4)o2)c(C)c1
REMARK SMILES IDX 6 1 5 3 2 4 3 5 23 6 4 7 21 8 1 9 22 10 7 11 8 12 20 13 9 14
REMARK SMILES IDX 10 15 11 16 12 17 16 18 13 19 15 20 14 21 17 22 19 23 18 24
REMARK H PARENT 6 2
ROOT
ATOM      1  N   UNL     1      -1.612  -0.938  -0.939  1.00  0.00    -0.308 N 
ATOM      2  H   UNL     1      -1.571  -1.577  -1.764  1.00  0.00     0.171 HD
ENDROOT
BRANCH   1   3
ATOM      3  C   UNL     1      -2.895  -0.493  -0.478  1.00  0.00     0.045 A 
ATOM      4  C   UNL     1      -5.417   0.442   0.349  1.00  0.00    -0.051 A 
ATOM      5  C   UNL     1      -5.055   0.486  -1.003  1.00  0.00     0.005 A 
ATOM      6  C   UNL     1      -4.532  -0.116   1.282  1.00  0.00     0.009 A 
ATOM      7  C   UNL     1      -3.803   0.023  -1.412  1.00  0.00     0.027 A 
ATOM      8  C   UNL     1      -3.277  -0.603   0.880  1.00  0.00    -0.027 A 
ATOM      9  C   UNL     1      -6.774   0.913   0.783  1.00  0.00     0.044 C 
ATOM     10  C   UNL     1      -2.373  -1.225   1.910  1.00  0.00     0.046 C 
ENDBRANCH   1   3
BRANCH   1  11
ATOM     11  C   UNL     1      -0.390  -0.341  -0.494  1.00  0.00     0.320 A 
ATOM     12  N   UNL     1      -0.317   0.707   0.348  1.00  0.00    -0.090 NA
ATOM     13  O   UNL     1       0.797  -0.742  -0.875  1.00  0.00    -0.403 OA
ATOM     14  N   UNL     1       0.973   0.963   0.498  1.00  0.00    -0.106 NA
ATOM     15  C   UNL     1       1.633   0.062  -0.260  1.00  0.00     0.249 A 
BRANCH  15  16
ATOM     16  C   UNL     1       3.101  -0.009  -0.382  1.00  0.00     0.043 A 
ATOM     17  C   UNL     1       3.698  -0.997  -1.208  1.00  0.00     0.018 A 
ATOM     18  C   UNL     1       3.924   0.902   0.320  1.00  0.00     0.064 A 
ATOM     19  C   UNL     1       5.097  -1.075  -1.333  1.00  0.00     0.051 A 
ATOM     20  C   UNL     1       5.303   0.789   0.169  1.00  0.00     0.166 A 
ATOM     21  C   UNL     1       5.865  -0.158  -0.623  1.00  0.00     0.165 A 
ATOM     22  O   UNL     1       6.297   1.555   0.746  1.00  0.00    -0.454 OA
ATOM     23  O   UNL     1       7.240  -0.035  -0.584  1.00  0.00    -0.454 OA
ATOM     24  C   UNL     1       7.562   1.058   0.288  1.00  0.00     0.468 C 
ENDBRANCH  15  16
ENDBRANCH   1  11
TORSDOF 3
