REMARK SMILES CC(C)c1ccc(-c2nc3ccccc3s2)cc1
REMARK SMILES IDX 4 1 5 2 6 3 7 4 17 5 18 6 2 7 1 8 3 9 8 10 9 11 16 12 10 13
REMARK SMILES IDX 15 14 11 15 14 16 12 17 13 18
REMARK H PARENT
ROOT
ATOM      1  C   UNL     1      -2.702   0.244  -0.174  1.00  0.00    -0.045 A 
ATOM      2  C   UNL     1      -2.015   1.463  -0.293  1.00  0.00     0.005 A 
ATOM      3  C   UNL     1      -0.620   1.505  -0.208  1.00  0.00     0.011 A 
ATOM      4  C   UNL     1       0.119   0.327  -0.003  1.00  0.00     0.010 A 
ATOM      5  C   UNL     1      -0.569  -0.893   0.116  1.00  0.00     0.011 A 
ATOM      6  C   UNL     1      -1.963  -0.935   0.031  1.00  0.00     0.005 A 
ENDROOT
BRANCH   1   7
ATOM      7  C   UNL     1      -4.216   0.213  -0.269  1.00  0.00     0.013 C 
ATOM      8  C   UNL     1      -4.841  -0.293   1.037  1.00  0.00     0.012 C 
ATOM      9  C   UNL     1      -4.679  -0.628  -1.464  1.00  0.00     0.012 C 
ENDBRANCH   1   7
BRANCH   4  10
ATOM     10  C   UNL     1       1.597   0.360   0.089  1.00  0.00     0.124 A 
ATOM     11  N   UNL     1       2.354  -0.751   0.286  1.00  0.00    -0.236 NA
ATOM     12  S   UNL     1       2.561   1.755  -0.035  1.00  0.00    -0.114 S 
ATOM     13  C   UNL     1       3.676  -0.449   0.332  1.00  0.00     0.082 A 
ATOM     14  C   UNL     1       3.982   0.892   0.172  1.00  0.00     0.055 A 
ATOM     15  C   UNL     1       4.694  -1.386   0.523  1.00  0.00     0.030 A 
ATOM     16  C   UNL     1       5.293   1.361   0.194  1.00  0.00     0.021 A 
ATOM     17  C   UNL     1       6.027  -0.940   0.550  1.00  0.00     0.002 A 
ATOM     18  C   UNL     1       6.325   0.428   0.386  1.00  0.00     0.002 A 
ENDBRANCH   4  10
TORSDOF 2
