REMARK SMILES Oc1ccc(Nc2ccnc3cc(Cl)ccc23)cc1
REMARK SMILES IDX 2 1 3 2 4 3 5 4 18 5 19 6 1 7 6 9 7 11 8 12 17 13 9 14 16 15
REMARK SMILES IDX 11 16 10 17 15 18 12 19 13 20 14 21
REMARK H PARENT 1 8 6 10
ROOT
ATOM      1  C   UNL     1       3.839   0.617   0.383  1.00  0.00     0.115 A 
ATOM      2  C   UNL     1       2.846   0.747  -0.596  1.00  0.00     0.048 A 
ATOM      3  C   UNL     1       1.648   0.036  -0.481  1.00  0.00     0.030 A 
ATOM      4  C   UNL     1       1.426  -0.810   0.623  1.00  0.00     0.039 A 
ATOM      5  C   UNL     1       2.431  -0.941   1.594  1.00  0.00     0.030 A 
ATOM      6  C   UNL     1       3.628  -0.230   1.476  1.00  0.00     0.048 A 
ENDROOT
BRANCH   1   7
ATOM      7  O   UNL     1       5.037   1.321   0.279  1.00  0.00    -0.508 OA
ATOM      8  H   UNL     1       5.219   1.941  -0.501  1.00  0.00     0.293 HD
ENDBRANCH   1   7
BRANCH   4   9
ATOM      9  N   UNL     1       0.203  -1.557   0.769  1.00  0.00    -0.355 N 
ATOM     10  H   UNL     1       0.198  -2.381   1.413  1.00  0.00     0.167 HD
BRANCH   9  11
ATOM     11  C   UNL     1      -0.954  -1.359  -0.057  1.00  0.00     0.049 A 
ATOM     12  C   UNL     1      -1.385  -2.410  -0.876  1.00  0.00     0.047 A 
ATOM     13  C   UNL     1      -1.678  -0.145  -0.052  1.00  0.00     0.024 A 
ATOM     14  C   UNL     1      -2.490  -2.235  -1.709  1.00  0.00     0.114 A 
ATOM     15  C   UNL     1      -1.347   0.927   0.799  1.00  0.00     0.014 A 
ATOM     16  C   UNL     1      -2.791  -0.015  -0.920  1.00  0.00     0.074 A 
ATOM     17  N   UNL     1      -3.159  -1.053  -1.717  1.00  0.00    -0.256 NA
ATOM     18  C   UNL     1      -2.087   2.113   0.760  1.00  0.00     0.021 A 
ATOM     19  C   UNL     1      -3.523   1.177  -0.951  1.00  0.00     0.049 A 
ATOM     20  C   UNL     1      -3.169   2.241  -0.116  1.00  0.00     0.043 A 
ATOM     21  Cl  UNL     1      -4.091   3.732  -0.157  1.00  0.00    -0.084 Cl
ENDBRANCH   9  11
ENDBRANCH   4   9
TORSDOF 3
