REMARK SMILES CC1(C)CC(Nc2ccc(Nc3ccccc3)cc2)CC(C)(C)[NH2+]1
REMARK SMILES IDX 7 1 8 2 19 3 9 4 18 5 10 6 6 7 5 9 2 10 24 11 4 12 21 13
REMARK SMILES IDX 20 14 1 15 3 16 22 19 23 20 11 21 12 23 13 24 17 25 14 26
REMARK SMILES IDX 16 27 15 28
REMARK H PARENT 6 8 24 17 24 18 11 22
ROOT
ATOM      1  C   UNL     1       0.540   1.287   1.244  1.00  0.00     0.034 A 
ATOM      2  C   UNL     1       1.312   1.772   2.312  1.00  0.00     0.028 A 
ATOM      3  C   UNL     1       1.199   0.809   0.094  1.00  0.00     0.028 A 
ATOM      4  C   UNL     1       2.708   1.764   2.245  1.00  0.00     0.028 A 
ATOM      5  C   UNL     1       2.595   0.803   0.028  1.00  0.00     0.028 A 
ATOM      6  C   UNL     1       3.361   1.262   1.113  1.00  0.00     0.039 A 
ENDROOT
BRANCH   1   7
ATOM      7  N   UNL     1      -0.899   1.314   1.351  1.00  0.00    -0.382 N 
ATOM      8  H   UNL     1      -1.308   1.792   2.188  1.00  0.00     0.160 HD
BRANCH   7   9
ATOM      9  C   UNL     1      -1.818   0.716   0.373  1.00  0.00     0.091 C 
ATOM     10  C   UNL     1      -4.292   0.562  -0.326  1.00  0.00     0.093 C 
ATOM     11  N   UNL     1      -4.170  -0.926  -0.304  1.00  0.00    -0.337 N 
ATOM     12  C   UNL     1      -3.248   1.223   0.613  1.00  0.00     0.093 C 
ATOM     13  C   UNL     1      -2.804  -1.518  -0.440  1.00  0.00     0.093 C 
ATOM     14  C   UNL     1      -1.793  -0.814   0.502  1.00  0.00     0.093 C 
ATOM     15  C   UNL     1      -5.701   0.944   0.196  1.00  0.00     0.079 C 
ATOM     16  C   UNL     1      -4.191   1.133  -1.766  1.00  0.00     0.079 C 
ATOM     17  H   UNL     1      -4.553  -1.251   0.617  1.00  0.00     0.347 HD
ATOM     18  H   UNL     1      -4.803  -1.339  -1.030  1.00  0.00     0.347 HD
ATOM     19  C   UNL     1      -2.877  -3.009  -0.021  1.00  0.00     0.079 C 
ATOM     20  C   UNL     1      -2.302  -1.497  -1.908  1.00  0.00     0.079 C 
ENDBRANCH   7   9
ENDBRANCH   1   7
BRANCH   6  21
ATOM     21  N   UNL     1       4.798   1.290   1.054  1.00  0.00    -0.356 N 
ATOM     22  H   UNL     1       5.293   2.051   1.572  1.00  0.00     0.167 HD
BRANCH  21  23
ATOM     23  C   UNL     1       5.599   0.344   0.325  1.00  0.00     0.038 A 
ATOM     24  C   UNL     1       6.833   0.750  -0.207  1.00  0.00     0.026 A 
ATOM     25  C   UNL     1       5.202  -0.999   0.189  1.00  0.00     0.026 A 
ATOM     26  C   UNL     1       7.638  -0.160  -0.899  1.00  0.00     0.002 A 
ATOM     27  C   UNL     1       6.011  -1.906  -0.503  1.00  0.00     0.002 A 
ATOM     28  C   UNL     1       7.226  -1.486  -1.050  1.00  0.00     0.000 A 
ENDBRANCH  21  23
ENDBRANCH   6  21
TORSDOF 4
