REMARK SMILES COc1ccc2c(c1)c1ccc3c(c1n2C)C(=O)C=CC3=O
REMARK SMILES IDX 3 1 4 2 5 3 6 4 7 5 8 6 9 7 10 8 11 9 12 10 13 11 14 12
REMARK SMILES IDX 15 13 16 14 17 15 18 16 19 17 20 18 21 19 22 20 2 21 1 22
REMARK H PARENT
ROOT
ATOM      1  C   UNL     1       3.657  -0.078  -0.298  1.00  0.00     0.119 A 
ATOM      2  C   UNL     1       3.476  -1.480  -0.302  1.00  0.00     0.048 A 
ATOM      3  C   UNL     1       2.191  -2.045  -0.222  1.00  0.00     0.031 A 
ATOM      4  C   UNL     1       1.092  -1.182  -0.149  1.00  0.00     0.049 A 
ATOM      5  C   UNL     1       1.267   0.181  -0.153  1.00  0.00     0.011 A 
ATOM      6  C   UNL     1       2.529   0.772  -0.217  1.00  0.00     0.057 A 
ATOM      7  C   UNL     1       0.014   0.731  -0.036  1.00  0.00     0.008 A 
ATOM      8  C   UNL     1      -0.368   2.059   0.118  1.00  0.00     0.012 A 
ATOM      9  C   UNL     1      -1.723   2.333   0.326  1.00  0.00     0.014 A 
ATOM     10  C   UNL     1      -2.682   1.292   0.312  1.00  0.00     0.035 A 
ATOM     11  C   UNL     1      -2.284  -0.053   0.072  1.00  0.00     0.057 A 
ATOM     12  C   UNL     1      -0.891  -0.319  -0.010  1.00  0.00     0.061 A 
ATOM     13  N   UNL     1      -0.220  -1.511  -0.025  1.00  0.00    -0.343 N 
ATOM     14  C   UNL     1      -0.722  -2.852   0.286  1.00  0.00     0.150 C 
ATOM     15  C   UNL     1      -3.359  -1.044  -0.208  1.00  0.00     0.188 C 
ATOM     16  O   UNL     1      -3.131  -2.090  -0.867  1.00  0.00    -0.289 OA
ATOM     17  C   UNL     1      -4.753  -0.731   0.154  1.00  0.00     0.057 C 
ATOM     18  C   UNL     1      -5.109   0.506   0.503  1.00  0.00     0.056 C 
ATOM     19  C   UNL     1      -4.116   1.593   0.542  1.00  0.00     0.186 C 
ATOM     20  O   UNL     1      -4.499   2.769   0.785  1.00  0.00    -0.289 OA
ENDROOT
BRANCH   1  21
ATOM     21  O   UNL     1       4.966   0.422  -0.375  1.00  0.00    -0.497 OA
ATOM     22  C   UNL     1       5.296   1.806  -0.380  1.00  0.00     0.278 C 
ENDBRANCH   1  21
TORSDOF 1
