REMARK SMILES O=C(Nc1ccc(C2=[NH+]CCN2)cc1)c1ccc(C(=O)Nc2ccc(C3=[NH+]CCN3)cc2)c([N+](=O)[O-])c1
REMARK SMILES IDX 18 1 17 2 33 3 16 4 37 5 15 6 19 7 21 8 20 10 22 11 25 12
REMARK SMILES IDX 24 13 31 14 23 15 32 16 26 17 27 18 28 19 30 20 29 21 34 24
REMARK SMILES IDX 35 25 36 26 2 27 3 28 1 29 4 31 5 32 14 33 6 34 13 35 7 36
REMARK SMILES IDX 8 37 9 38 12 39 10 40 11 41
REMARK H PARENT 21 9 27 22 30 23 3 30 9 42 12 43
ROOT
ATOM      1  C   UNL     1       1.411  -1.194   0.161  1.00  0.00     0.117 A 
ATOM      2  C   UNL     1       0.714   0.010   0.351  1.00  0.00     0.022 A 
ATOM      3  C   UNL     1       0.684  -2.408   0.085  1.00  0.00     0.282 A 
ATOM      4  C   UNL     1      -0.678   0.024   0.442  1.00  0.00     0.015 A 
ATOM      5  C   UNL     1      -0.719  -2.377   0.167  1.00  0.00     0.100 A 
ATOM      6  C   UNL     1      -1.409  -1.167   0.338  1.00  0.00     0.047 A 
ENDROOT
BRANCH   1   7
ATOM      7  C   UNL     1       2.881  -1.142  -0.017  1.00  0.00     0.262 C 
ATOM      8  N   UNL     1       3.673  -0.240   0.775  1.00  0.00    -0.322 N 
ATOM      9  H   UNL     1       3.246   0.142   1.649  1.00  0.00     0.170 HD
ATOM     10  O   UNL     1       3.434  -1.900  -0.859  1.00  0.00    -0.269 OA
BRANCH   8  11
ATOM     11  C   UNL     1       5.062   0.040   0.528  1.00  0.00     0.041 A 
ATOM     12  C   UNL     1       7.793   0.615   0.095  1.00  0.00     0.063 A 
ATOM     13  C   UNL     1       6.928   0.394  -0.993  1.00  0.00     0.019 A 
ATOM     14  C   UNL     1       7.269   0.572   1.399  1.00  0.00     0.019 A 
ATOM     15  C   UNL     1       5.575   0.113  -0.778  1.00  0.00     0.027 A 
ATOM     16  C   UNL     1       5.915   0.295   1.611  1.00  0.00     0.027 A 
BRANCH  12  17
ATOM     17  C   UNL     1       9.229   0.899  -0.141  1.00  0.00     0.275 C 
ATOM     18  N   UNL     1      10.162   0.614   0.704  1.00  0.00    -0.270 N 
ATOM     19  C   UNL     1      11.466   0.992   0.175  1.00  0.00     0.279 C 
ATOM     20  N   UNL     1       9.724   1.494  -1.327  1.00  0.00    -0.270 N 
ATOM     21  C   UNL     1      11.165   1.613  -1.197  1.00  0.00     0.279 C 
ATOM     22  H   UNL     1      10.022   0.142   1.625  1.00  0.00     0.305 HD
ATOM     23  H   UNL     1       9.157   1.859  -2.125  1.00  0.00     0.305 HD
ENDBRANCH  12  17
ENDBRANCH   8  11
ENDBRANCH   1   7
BRANCH   3  24
ATOM     24  N   UNL     1       1.350  -3.677  -0.020  1.00  0.00     0.063 N 
ATOM     25  O   UNL     1       0.823  -4.609  -0.662  1.00  0.00    -0.258 OA
ATOM     26  O   UNL     1       2.468  -3.940   0.738  1.00  0.00    -0.258 OA
ENDBRANCH   3  24
BRANCH   6  27
ATOM     27  C   UNL     1      -2.886  -1.170   0.446  1.00  0.00     0.255 C 
ATOM     28  N   UNL     1      -3.667  -0.076  -0.073  1.00  0.00    -0.322 N 
ATOM     29  O   UNL     1      -3.453  -2.142   1.016  1.00  0.00    -0.269 OA
ATOM     30  H   UNL     1      -3.171   0.769  -0.432  1.00  0.00     0.170 HD
BRANCH  28  31
ATOM     31  C   UNL     1      -5.106  -0.037  -0.072  1.00  0.00     0.041 A 
ATOM     32  C   UNL     1      -5.755   1.193   0.088  1.00  0.00     0.027 A 
ATOM     33  C   UNL     1      -5.877  -1.190  -0.298  1.00  0.00     0.027 A 
ATOM     34  C   UNL     1      -7.151   1.271   0.064  1.00  0.00     0.019 A 
ATOM     35  C   UNL     1      -7.273  -1.115  -0.315  1.00  0.00     0.019 A 
ATOM     36  C   UNL     1      -7.927   0.115  -0.130  1.00  0.00     0.063 A 
BRANCH  36  37
ATOM     37  C   UNL     1      -9.410   0.188  -0.168  1.00  0.00     0.275 C 
ATOM     38  N   UNL     1     -10.098   1.125   0.394  1.00  0.00    -0.270 N 
ATOM     39  N   UNL     1     -10.222  -0.772  -0.823  1.00  0.00    -0.270 N 
ATOM     40  C   UNL     1     -11.524   0.916   0.177  1.00  0.00     0.279 C 
ATOM     41  C   UNL     1     -11.607  -0.368  -0.663  1.00  0.00     0.279 C 
ATOM     42  H   UNL     1      -9.707   1.912   0.956  1.00  0.00     0.305 HD
ATOM     43  H   UNL     1      -9.896  -1.581  -1.395  1.00  0.00     0.305 HD
ENDBRANCH  36  37
ENDBRANCH  28  31
ENDBRANCH   6  27
TORSDOF 7
