REMARK SMILES CSc1cccc(NC(=O)Nc2nc3c(C)cccc3s2)c1
REMARK SMILES IDX 3 1 4 2 5 3 6 4 7 5 22 6 2 7 1 8 8 9 9 10 11 11 10 13 12 15
REMARK SMILES IDX 13 16 21 17 14 18 20 19 15 20 19 21 17 22 18 23 16 24
REMARK H PARENT 8 12 11 14
ROOT
ATOM      1  C   UNL     1       4.792  -1.157  -0.376  1.00  0.00     0.009 A 
ATOM      2  C   UNL     1       5.661  -0.804  -1.414  1.00  0.00     0.015 A 
ATOM      3  C   UNL     1       5.240   0.084  -2.406  1.00  0.00     0.003 A 
ATOM      4  C   UNL     1       3.946   0.613  -2.371  1.00  0.00     0.026 A 
ATOM      5  C   UNL     1       3.055   0.245  -1.351  1.00  0.00     0.043 A 
ATOM      6  C   UNL     1       3.494  -0.633  -0.342  1.00  0.00     0.041 A 
ENDROOT
BRANCH   1   7
ATOM      7  S   UNL     1       5.341  -2.281   0.910  1.00  0.00    -0.130 SA
ATOM      8  C   UNL     1       5.968  -0.948   1.978  1.00  0.00     0.091 C 
ENDBRANCH   1   7
BRANCH   5   9
ATOM      9  N   UNL     1       1.737   0.819  -1.326  1.00  0.00    -0.308 N 
ATOM     10  C   UNL     1       0.570   0.137  -0.843  1.00  0.00     0.325 C 
ATOM     11  N   UNL     1      -0.647   0.875  -0.649  1.00  0.00    -0.283 N 
ATOM     12  H   UNL     1       1.604   1.760  -1.760  1.00  0.00     0.171 HD
ATOM     13  O   UNL     1       0.605  -1.106  -0.637  1.00  0.00    -0.248 OA
ATOM     14  H   UNL     1      -0.646   1.888  -0.906  1.00  0.00     0.174 HD
BRANCH  11  15
ATOM     15  C   UNL     1      -1.870   0.337  -0.121  1.00  0.00     0.191 A 
ATOM     16  N   UNL     1      -2.997   1.083  -0.019  1.00  0.00    -0.220 NA
ATOM     17  S   UNL     1      -2.095  -1.241   0.463  1.00  0.00    -0.097 S 
ATOM     18  C   UNL     1      -4.016   0.365   0.522  1.00  0.00     0.087 A 
ATOM     19  C   UNL     1      -3.700  -0.945   0.851  1.00  0.00     0.057 A 
ATOM     20  C   UNL     1      -5.308   0.862   0.754  1.00  0.00    -0.024 A 
ATOM     21  C   UNL     1      -4.630  -1.815   1.409  1.00  0.00     0.021 A 
ATOM     22  C   UNL     1      -6.268  -0.010   1.311  1.00  0.00     0.006 A 
ATOM     23  C   UNL     1      -5.928  -1.337   1.639  1.00  0.00     0.002 A 
ATOM     24  C   UNL     1      -5.671   2.271   0.383  1.00  0.00     0.047 C 
ENDBRANCH  11  15
ENDBRANCH   5   9
TORSDOF 3
