REMARK SMILES Clc1ccc(SCNc2ccccc2Cl)cc1
REMARK SMILES IDX 7 1 6 2 5 3 2 4 3 5 17 6 4 7 16 8 1 9 8 10 9 12 10 13 14 14
REMARK SMILES IDX 11 15 13 16 12 17 15 18
REMARK H PARENT 8 11
ROOT
ATOM      1  C   UNL     1      -0.076  -1.211   0.081  1.00  0.00     0.188 C 
ENDROOT
BRANCH   1   2
ATOM      2  S   UNL     1      -0.667  -0.398  -1.442  1.00  0.00    -0.105 SA
BRANCH   2   3
ATOM      3  C   UNL     1      -2.274  -0.006  -0.752  1.00  0.00     0.009 A 
ATOM      4  C   UNL     1      -4.786   0.611   0.323  1.00  0.00     0.041 A 
ATOM      5  C   UNL     1      -3.727   1.517   0.453  1.00  0.00     0.021 A 
ATOM      6  C   UNL     1      -4.589  -0.603  -0.346  1.00  0.00     0.021 A 
ATOM      7  C   UNL     1      -2.473   1.210  -0.085  1.00  0.00     0.016 A 
ATOM      8  C   UNL     1      -3.335  -0.910  -0.884  1.00  0.00     0.016 A 
ATOM      9  Cl  UNL     1      -6.358   0.997   0.998  1.00  0.00    -0.084 Cl
ENDBRANCH   2   3
ENDBRANCH   1   2
BRANCH   1  10
ATOM     10  N   UNL     1       1.333  -1.575  -0.061  1.00  0.00    -0.374 N 
ATOM     11  H   UNL     1       1.543  -2.597  -0.089  1.00  0.00     0.161 HD
BRANCH  10  12
ATOM     12  C   UNL     1       2.416  -0.622  -0.130  1.00  0.00     0.054 A 
ATOM     13  C   UNL     1       2.191   0.754   0.090  1.00  0.00     0.027 A 
ATOM     14  C   UNL     1       3.733  -1.055  -0.414  1.00  0.00     0.064 A 
ATOM     15  C   UNL     1       3.246   1.668   0.026  1.00  0.00     0.002 A 
ATOM     16  C   UNL     1       4.781  -0.128  -0.475  1.00  0.00     0.023 A 
ATOM     17  C   UNL     1       4.538   1.228  -0.255  1.00  0.00     0.002 A 
ATOM     18  Cl  UNL     1       4.113  -2.747  -0.716  1.00  0.00    -0.082 Cl
ENDBRANCH  10  12
ENDBRANCH   1  10
TORSDOF 4
