REMARK SMILES CC[C@@]12CCC[N@H+]3CCc4c(n(c5ccccc45)[C@@](O)(C(=O)OC)C1)[C@@H]32
REMARK SMILES IDX 6 1 7 2 8 3 26 4 5 5 4 6 3 7 25 8 19 9 12 10 11 11 13 12
REMARK SMILES IDX 10 13 14 14 18 15 9 16 15 17 17 18 16 19 2 21 1 22 20 23
REMARK SMILES IDX 21 25 22 26 23 27 24 28
REMARK H PARENT 7 20 20 24
ROOT
ATOM      1  C   UNL     1      -3.607  -0.176  -1.184  1.00  0.00     0.262 C 
ATOM      2  N   UNL     1      -2.511  -0.883  -0.483  1.00  0.00    -0.327 N 
ATOM      3  C   UNL     1      -2.402  -2.289  -0.964  1.00  0.00     0.267 C 
ATOM      4  C   UNL     1      -1.238  -0.147  -0.707  1.00  0.00     0.238 C 
ATOM      5  C   UNL     1      -3.733   1.292  -0.723  1.00  0.00     0.062 C 
ATOM      6  C   UNL     1      -2.388   2.048  -0.792  1.00  0.00     0.019 C 
ATOM      7  C   UNL     1      -1.236   1.279  -0.083  1.00  0.00     0.033 C 
ATOM      8  C   UNL     1       0.153   1.921  -0.439  1.00  0.00     0.085 C 
ATOM      9  C   UNL     1       1.411   1.092   0.028  1.00  0.00     0.243 C 
ATOM     10  N   UNL     1       1.109  -0.355   0.108  1.00  0.00    -0.301 N 
ATOM     11  C   UNL     1      -0.081  -0.908  -0.191  1.00  0.00     0.084 A 
ATOM     12  C   UNL     1       1.874  -1.391   0.528  1.00  0.00     0.052 A 
ATOM     13  C   UNL     1      -0.093  -2.265  -0.009  1.00  0.00    -0.007 A 
ATOM     14  C   UNL     1       3.191  -1.358   0.992  1.00  0.00     0.027 A 
ATOM     15  C   UNL     1       1.161  -2.575   0.476  1.00  0.00     0.004 A 
ATOM     16  C   UNL     1      -1.331  -3.091  -0.174  1.00  0.00     0.099 C 
ATOM     17  C   UNL     1       3.773  -2.570   1.405  1.00  0.00     0.002 A 
ATOM     18  C   UNL     1       1.712  -3.786   0.886  1.00  0.00     0.010 A 
ATOM     19  C   UNL     1       3.039  -3.776   1.353  1.00  0.00     0.001 A 
ATOM     20  H   UNL     1      -2.742  -0.929   0.536  1.00  0.00     0.348 HD
ENDROOT
BRANCH   7  21
ATOM     21  C   UNL     1      -1.467   1.245   1.475  1.00  0.00     0.010 C 
ATOM     22  C   UNL     1      -1.304   2.589   2.198  1.00  0.00     0.005 C 
ENDBRANCH   7  21
BRANCH   9  23
ATOM     23  O   UNL     1       1.852   1.570   1.279  1.00  0.00    -0.361 OA
ATOM     24  H   UNL     1       1.383   1.072   1.995  1.00  0.00     0.214 HD
ENDBRANCH   9  23
BRANCH   9  25
ATOM     25  C   UNL     1       2.525   1.308  -0.966  1.00  0.00     0.359 C 
ATOM     26  O   UNL     1       2.557   0.630  -2.031  1.00  0.00    -0.246 OA
BRANCH  25  27
ATOM     27  O   UNL     1       3.486   2.296  -0.730  1.00  0.00    -0.465 OA
ATOM     28  C   UNL     1       4.553   2.559  -1.632  1.00  0.00     0.282 C 
ENDBRANCH  25  27
ENDBRANCH   9  25
TORSDOF 4
