REMARK SMILES O=c1nc(S)c2ncn(-c3ccccc3)c2[nH]1
REMARK SMILES IDX 4 1 3 2 2 3 1 4 17 5 16 6 6 7 7 8 8 9 9 10 5 12 10 14 11 15
REMARK SMILES IDX 15 16 12 17 14 18 13 19
REMARK H PARENT 17 11 5 13
ROOT
ATOM      1  C   UNL     1      -3.604  -0.109   0.297  1.00  0.00     0.128 A 
ATOM      2  N   UNL     1      -3.728  -0.361  -1.039  1.00  0.00    -0.185 NA
ATOM      3  C   UNL     1      -2.628  -0.488  -1.849  1.00  0.00     0.347 A 
ATOM      4  O   UNL     1      -2.783  -0.734  -3.074  1.00  0.00    -0.246 OA
ATOM      5  N   UNL     1      -1.368  -0.357  -1.330  1.00  0.00    -0.290 N 
ATOM      6  C   UNL     1      -1.247  -0.078  -0.006  1.00  0.00     0.149 A 
ATOM      7  C   UNL     1      -2.322   0.027   0.812  1.00  0.00     0.138 A 
ATOM      8  N   UNL     1      -1.934   0.223   2.085  1.00  0.00    -0.232 NA
ATOM      9  C   UNL     1      -0.577   0.228   1.988  1.00  0.00     0.206 A 
ATOM     10  N   UNL     1      -0.124   0.050   0.719  1.00  0.00    -0.285 N 
ATOM     11  H   UNL     1      -0.530  -0.489  -1.938  1.00  0.00     0.173 HD
ENDROOT
BRANCH   1  12
ATOM     12  S   UNL     1      -5.054   0.025   1.335  1.00  0.00    -0.121 SA
ATOM     13  H   UNL     1      -5.146   1.412   1.116  1.00  0.00     0.110 HD
ENDBRANCH   1  12
BRANCH  10  14
ATOM     14  C   UNL     1       1.246   0.026   0.287  1.00  0.00     0.049 A 
ATOM     15  C   UNL     1       2.208  -0.674   1.034  1.00  0.00     0.027 A 
ATOM     16  C   UNL     1       1.649   0.737  -0.856  1.00  0.00     0.027 A 
ATOM     17  C   UNL     1       3.546  -0.685   0.627  1.00  0.00     0.002 A 
ATOM     18  C   UNL     1       2.988   0.724  -1.260  1.00  0.00     0.002 A 
ATOM     19  C   UNL     1       3.935   0.010  -0.520  1.00  0.00     0.000 A 
ENDBRANCH  10  14
TORSDOF 2
