REMARK SMILES C[C@H](O)c1nc2c(c(=O)n(C)c(=O)n2C)n1C
REMARK SMILES IDX 1 1 2 2 3 3 4 5 5 6 16 7 6 8 7 9 14 10 8 11 12 12 10 13
REMARK SMILES IDX 17 14 15 15 9 16 13 17 11 18
REMARK H PARENT 3 4
ROOT
ATOM      1  C   UNL     1      -3.877   0.303  -0.173  1.00  0.00     0.047 C 
ATOM      2  C   UNL     1      -2.955   0.294   1.044  1.00  0.00     0.177 C 
ENDROOT
BRANCH   2   3
ATOM      3  O   UNL     1      -3.158   1.472   1.779  1.00  0.00    -0.385 OA
ATOM      4  H   UNL     1      -2.734   1.332   2.666  1.00  0.00     0.211 HD
ENDBRANCH   2   3
BRANCH   2   5
ATOM      5  C   UNL     1      -1.517   0.200   0.598  1.00  0.00     0.140 A 
ATOM      6  N   UNL     1      -0.747   1.304   0.406  1.00  0.00    -0.212 NA
ATOM      7  N   UNL     1      -0.870  -0.964   0.301  1.00  0.00    -0.323 N 
ATOM      8  C   UNL     1       0.427   0.786  -0.002  1.00  0.00     0.168 A 
ATOM      9  C   UNL     1       0.365  -0.564  -0.056  1.00  0.00     0.152 A 
ATOM     10  N   UNL     1       1.562   1.477  -0.298  1.00  0.00    -0.279 N 
ATOM     11  C   UNL     1       1.489  -1.304  -0.408  1.00  0.00     0.282 A 
ATOM     12  C   UNL     1       2.687   0.757  -0.637  1.00  0.00     0.332 A 
ATOM     13  N   UNL     1       2.645  -0.625  -0.723  1.00  0.00    -0.261 N 
ATOM     14  C   UNL     1      -1.366  -2.337   0.412  1.00  0.00     0.152 C 
ATOM     15  C   UNL     1       1.603   2.940  -0.176  1.00  0.00     0.157 C 
ATOM     16  O   UNL     1       1.450  -2.564  -0.425  1.00  0.00    -0.267 OA
ATOM     17  O   UNL     1       3.771   1.367  -0.862  1.00  0.00    -0.247 OA
ATOM     18  C   UNL     1       3.864  -1.375  -1.068  1.00  0.00     0.159 C 
ENDBRANCH   2   5
TORSDOF 2
