REMARK SMILES O=C([O-])c1cncc(Br)c1
REMARK SMILES IDX 4 1 5 2 10 3 6 4 8 5 7 6 9 7 2 8 1 9 3 10
REMARK H PARENT
ROOT
ATOM      1  C   UNL     1      -0.795  -0.074   0.063  1.00  0.00     0.017 A 
ATOM      2  C   UNL     1      -0.299  -1.385   0.174  1.00  0.00     0.121 A 
ATOM      3  C   UNL     1       0.122   0.974  -0.116  1.00  0.00     0.029 A 
ATOM      4  N   UNL     1       1.038  -1.621   0.108  1.00  0.00    -0.263 NA
ATOM      5  C   UNL     1       1.492   0.704  -0.180  1.00  0.00     0.036 A 
ATOM      6  C   UNL     1       1.935  -0.614  -0.065  1.00  0.00     0.126 A 
ATOM      7  Br  UNL     1       2.745   2.125  -0.424  1.00  0.00    -0.049 Br
ENDROOT
BRANCH   1   8
ATOM      8  C   UNL     1      -2.247   0.199   0.132  1.00  0.00     0.073 C 
ATOM      9  O   UNL     1      -3.068  -0.742   0.293  1.00  0.00    -0.545 OA
ATOM     10  O   UNL     1      -2.725   1.500   0.021  1.00  0.00    -0.545 OA
ENDBRANCH   1   8
TORSDOF 1
