REMARK SMILES Cc1cccc2c1c1ccc3c(c1n2C)C(=O)C=CC3=O
REMARK SMILES IDX 1 1 2 2 3 3 4 4 5 5 6 6 7 7 8 8 9 9 10 10 11 11 12 12 13 13
REMARK SMILES IDX 14 14 15 15 16 16 17 17 18 18 19 19 20 20 21 21
REMARK H PARENT
ROOT
ATOM      1  C   UNL     1      -3.356  -1.998   0.450  1.00  0.00     0.045 C 
ATOM      2  C   UNL     1      -3.016  -0.579   0.099  1.00  0.00    -0.041 A 
ATOM      3  C   UNL     1      -4.053   0.352  -0.127  1.00  0.00     0.004 A 
ATOM      4  C   UNL     1      -3.765   1.686  -0.466  1.00  0.00     0.002 A 
ATOM      5  C   UNL     1      -2.438   2.120  -0.583  1.00  0.00     0.027 A 
ATOM      6  C   UNL     1      -1.411   1.196  -0.357  1.00  0.00     0.049 A 
ATOM      7  C   UNL     1      -1.689  -0.117  -0.024  1.00  0.00     0.010 A 
ATOM      8  C   UNL     1      -0.452  -0.723   0.155  1.00  0.00     0.009 A 
ATOM      9  C   UNL     1      -0.111  -1.997   0.612  1.00  0.00     0.012 A 
ATOM     10  C   UNL     1       1.242  -2.302   0.790  1.00  0.00     0.014 A 
ATOM     11  C   UNL     1       2.245  -1.369   0.450  1.00  0.00     0.035 A 
ATOM     12  C   UNL     1       1.894  -0.104  -0.091  1.00  0.00     0.057 A 
ATOM     13  C   UNL     1       0.515   0.233  -0.134  1.00  0.00     0.061 A 
ATOM     14  N   UNL     1      -0.077   1.435  -0.390  1.00  0.00    -0.343 N 
ATOM     15  C   UNL     1       0.533   2.768  -0.424  1.00  0.00     0.150 C 
ATOM     16  C   UNL     1       2.987   0.706  -0.697  1.00  0.00     0.188 C 
ATOM     17  O   UNL     1       2.751   1.563  -1.587  1.00  0.00    -0.289 OA
ATOM     18  C   UNL     1       4.390   0.398  -0.372  1.00  0.00     0.057 C 
ATOM     19  C   UNL     1       4.715  -0.733   0.256  1.00  0.00     0.056 C 
ATOM     20  C   UNL     1       3.677  -1.703   0.644  1.00  0.00     0.186 C 
ATOM     21  O   UNL     1       4.021  -2.804   1.152  1.00  0.00    -0.289 OA
ENDROOT
TORSDOF 0
