REMARK SMILES COc1cc([C@H](O)c2nc3ccccc3s2)cc(OC)c1OC
REMARK SMILES IDX 3 1 4 2 5 3 17 4 18 5 21 6 2 7 1 8 22 9 23 10 6 11 7 12 8 14
REMARK SMILES IDX 9 15 16 16 10 17 15 18 11 19 14 20 12 21 13 22 19 23 20 24
REMARK H PARENT 7 13
ROOT
ATOM      1  C   UNL     1      -2.110   0.039   1.130  1.00  0.00     0.165 A 
ATOM      2  C   UNL     1      -1.151  -0.925   0.767  1.00  0.00     0.057 A 
ATOM      3  C   UNL     1      -0.787  -1.115  -0.574  1.00  0.00    -0.005 A 
ATOM      4  C   UNL     1      -1.372  -0.314  -1.561  1.00  0.00     0.057 A 
ATOM      5  C   UNL     1      -2.334   0.654  -1.223  1.00  0.00     0.165 A 
ATOM      6  C   UNL     1      -2.710   0.834   0.119  1.00  0.00     0.203 A 
ENDROOT
BRANCH   1   7
ATOM      7  O   UNL     1      -2.472   0.222   2.474  1.00  0.00    -0.493 OA
ATOM      8  C   UNL     1      -1.934  -0.507   3.573  1.00  0.00     0.278 C 
ENDBRANCH   1   7
BRANCH   6   9
ATOM      9  O   UNL     1      -3.682   1.820   0.374  1.00  0.00    -0.490 OA
ATOM     10  C   UNL     1      -4.219   2.175   1.644  1.00  0.00     0.278 C 
ENDBRANCH   6   9
BRANCH   3  11
ATOM     11  C   UNL     1       0.276  -2.124  -0.950  1.00  0.00     0.204 C 
BRANCH  11  12
ATOM     12  O   UNL     1       0.115  -3.315  -0.225  1.00  0.00    -0.381 OA
ATOM     13  H   UNL     1      -0.696  -3.761  -0.585  1.00  0.00     0.212 HD
ENDBRANCH  11  12
BRANCH  11  14
ATOM     14  C   UNL     1       1.632  -1.546  -0.681  1.00  0.00     0.127 A 
ATOM     15  N   UNL     1       2.334  -0.853  -1.611  1.00  0.00    -0.238 NA
ATOM     16  S   UNL     1       2.412  -1.562   0.827  1.00  0.00    -0.116 S 
ATOM     17  C   UNL     1       3.493  -0.374  -1.091  1.00  0.00     0.082 A 
ATOM     18  C   UNL     1       3.708  -0.669   0.246  1.00  0.00     0.055 A 
ATOM     19  C   UNL     1       4.429   0.374  -1.807  1.00  0.00     0.030 A 
ATOM     20  C   UNL     1       4.846  -0.242   0.925  1.00  0.00     0.021 A 
ATOM     21  C   UNL     1       5.588   0.817  -1.146  1.00  0.00     0.002 A 
ATOM     22  C   UNL     1       5.795   0.510   0.214  1.00  0.00     0.002 A 
ENDBRANCH  11  14
ENDBRANCH   3  11
BRANCH   5  23
ATOM     23  O   UNL     1      -2.942   1.464  -2.196  1.00  0.00    -0.493 OA
ATOM     24  C   UNL     1      -2.663   1.403  -3.591  1.00  0.00     0.278 C 
ENDBRANCH   5  23
TORSDOF 6
