REMARK SMILES O=C(Nc1ccc(Cl)c([N+](=O)[O-])c1)Nc1nc2ccccc2s1
REMARK SMILES IDX 4 1 5 2 6 3 7 4 8 5 9 6 13 7 3 8 2 9 14 10 1 11 15 14 16 15
REMARK SMILES IDX 23 16 17 17 22 18 18 19 21 20 19 21 20 22 10 23 11 24 12 25
REMARK H PARENT 3 12 14 13
ROOT
ATOM      1  C   UNL     1       2.978   0.213  -0.013  1.00  0.00     0.049 A 
ATOM      2  C   UNL     1       2.918   1.396  -0.766  1.00  0.00     0.028 A 
ATOM      3  C   UNL     1       4.053   1.870  -1.423  1.00  0.00     0.030 A 
ATOM      4  C   UNL     1       5.267   1.180  -1.337  1.00  0.00     0.118 A 
ATOM      5  Cl  UNL     1       6.666   1.890  -2.138  1.00  0.00    -0.077 Cl
ATOM      6  C   UNL     1       5.349  -0.009  -0.575  1.00  0.00     0.289 A 
ATOM      7  C   UNL     1       4.199  -0.467   0.094  1.00  0.00     0.113 A 
ENDROOT
BRANCH   1   8
ATOM      8  N   UNL     1       1.830  -0.282   0.698  1.00  0.00    -0.307 N 
ATOM      9  C   UNL     1       0.479  -0.172   0.225  1.00  0.00     0.325 C 
ATOM     10  N   UNL     1      -0.605  -0.499   1.109  1.00  0.00    -0.283 N 
ATOM     11  O   UNL     1       0.254   0.164  -0.969  1.00  0.00    -0.248 OA
ATOM     12  H   UNL     1       1.994  -0.830   1.573  1.00  0.00     0.171 HD
ATOM     13  H   UNL     1      -0.364  -0.838   2.067  1.00  0.00     0.174 HD
BRANCH  10  14
ATOM     14  C   UNL     1      -2.001  -0.389   0.788  1.00  0.00     0.191 A 
ATOM     15  N   UNL     1      -2.969  -0.765   1.659  1.00  0.00    -0.220 NA
ATOM     16  S   UNL     1      -2.647   0.224  -0.660  1.00  0.00    -0.097 S 
ATOM     17  C   UNL     1      -4.205  -0.555   1.137  1.00  0.00     0.084 A 
ATOM     18  C   UNL     1      -4.224  -0.013  -0.139  1.00  0.00     0.056 A 
ATOM     19  C   UNL     1      -5.400  -0.846   1.797  1.00  0.00     0.030 A 
ATOM     20  C   UNL     1      -5.413   0.262  -0.809  1.00  0.00     0.021 A 
ATOM     21  C   UNL     1      -6.615  -0.578   1.143  1.00  0.00     0.002 A 
ATOM     22  C   UNL     1      -6.622  -0.027  -0.154  1.00  0.00     0.002 A 
ENDBRANCH  10  14
ENDBRANCH   1   8
BRANCH   6  23
ATOM     23  N   UNL     1       6.575  -0.756  -0.457  1.00  0.00     0.064 N 
ATOM     24  O   UNL     1       7.407  -0.773  -1.387  1.00  0.00    -0.258 OA
ATOM     25  O   UNL     1       6.777  -1.583   0.624  1.00  0.00    -0.258 OA
ENDBRANCH   6  23
TORSDOF 3
