REMARK SMILES C=CCc1cc(Cl)ccc1OC(=O)Nc1cccc(Cl)c1
REMARK SMILES IDX 4 1 5 2 6 3 7 4 8 5 9 6 10 7 3 8 2 9 1 10 11 11 12 12 14 13
REMARK SMILES IDX 13 14 15 16 16 17 21 18 17 19 19 20 18 21 20 22
REMARK H PARENT 14 15
ROOT
ATOM      1  C   UNL     1       2.798  -0.083  -0.865  1.00  0.00     0.000 A 
ATOM      2  C   UNL     1       3.878   0.618  -1.428  1.00  0.00     0.028 A 
ATOM      3  C   UNL     1       3.789   1.993  -1.656  1.00  0.00     0.041 A 
ATOM      4  Cl  UNL     1       5.144   2.856  -2.360  1.00  0.00    -0.084 Cl
ATOM      5  C   UNL     1       2.625   2.683  -1.310  1.00  0.00     0.024 A 
ATOM      6  C   UNL     1       1.548   2.001  -0.741  1.00  0.00     0.049 A 
ATOM      7  C   UNL     1       1.618   0.612  -0.523  1.00  0.00     0.136 A 
ENDROOT
BRANCH   1   8
ATOM      8  C   UNL     1       2.923  -1.563  -0.602  1.00  0.00     0.066 C 
BRANCH   8   9
ATOM      9  C   UNL     1       3.192  -1.826   0.854  1.00  0.00    -0.030 C 
ATOM     10  C   UNL     1       4.367  -1.525   1.415  1.00  0.00     0.004 C 
ENDBRANCH   8   9
ENDBRANCH   1   8
BRANCH   7  11
ATOM     11  O   UNL     1       0.558  -0.094   0.070  1.00  0.00    -0.410 OA
BRANCH  11  12
ATOM     12  C   UNL     1      -0.801   0.218  -0.065  1.00  0.00     0.417 C 
ATOM     13  N   UNL     1      -1.741  -0.386   0.834  1.00  0.00    -0.291 N 
ATOM     14  O   UNL     1      -1.193   1.006  -0.968  1.00  0.00    -0.224 OA
ATOM     15  H   UNL     1      -1.357  -0.832   1.697  1.00  0.00     0.173 HD
BRANCH  13  16
ATOM     16  C   UNL     1      -3.169  -0.307   0.686  1.00  0.00     0.045 A 
ATOM     17  C   UNL     1      -3.780  -0.336  -0.581  1.00  0.00     0.026 A 
ATOM     18  C   UNL     1      -3.977  -0.263   1.834  1.00  0.00     0.046 A 
ATOM     19  C   UNL     1      -5.173  -0.283  -0.693  1.00  0.00     0.004 A 
ATOM     20  C   UNL     1      -5.371  -0.209   1.718  1.00  0.00     0.043 A 
ATOM     21  C   UNL     1      -5.968  -0.215   0.454  1.00  0.00     0.020 A 
ATOM     22  Cl  UNL     1      -6.369  -0.138   3.159  1.00  0.00    -0.084 Cl
ENDBRANCH  13  16
ENDBRANCH  11  12
ENDBRANCH   7  11
TORSDOF 5
