REMARK SMILES Cc1cc(=[SH2])nc([S-])[nH]1
REMARK SMILES IDX 9 1 2 2 1 3 3 4 4 5 6 6 7 7 8 8 5 10
REMARK H PARENT 9 9 5 11 5 12
ROOT
ATOM      1  N   UNL     1      -0.964   1.155   0.390  1.00  0.00    -0.366 N 
ATOM      2  C   UNL     1      -0.925  -0.208   0.345  1.00  0.00     0.014 A 
ATOM      3  C   UNL     1      -2.198  -0.999   0.296  1.00  0.00     0.064 C 
ATOM      4  C   UNL     1       0.311  -0.862   0.278  1.00  0.00     0.055 A 
ATOM      5  C   UNL     1       1.477  -0.092   0.289  1.00  0.00     0.083 A 
ATOM      6  N   UNL     1       1.389   1.262   0.353  1.00  0.00    -0.255 NA
ATOM      7  C   UNL     1       0.184   1.885   0.401  1.00  0.00    -0.018 A 
ATOM      8  S   UNL     1       0.115   3.684   0.474  1.00  0.00    -0.742 S 
ATOM      9  H   UNL     1      -1.884   1.650   0.417  1.00  0.00     0.166 HD
ENDROOT
BRANCH   5  10
ATOM     10  S   UNL     1       2.923  -0.801   0.227  1.00  0.00    -0.190 S 
ATOM     11  H   UNL     1       3.833   0.250   0.136  1.00  0.00     0.095 HD
ATOM     12  H   UNL     1       2.947  -1.382  -1.039  1.00  0.00     0.095 HD
ENDBRANCH   5  10
TORSDOF 1
