REMARK SMILES Cc1cc(NC(=O)c2ccccc2)c(Cl)cc1N
REMARK SMILES IDX 1 1 2 2 3 3 4 4 14 5 15 6 16 7 17 8 18 9 5 12 6 13 7 15 8 16
REMARK SMILES IDX 9 17 13 18 10 19 12 20 11 21
REMARK H PARENT 18 10 18 11 5 14
ROOT
ATOM      1  C   UNL     1      -3.797   0.293  -1.577  1.00  0.00     0.046 C 
ATOM      2  C   UNL     1      -3.022  -0.161  -0.369  1.00  0.00    -0.026 A 
ATOM      3  C   UNL     1      -1.622  -0.041  -0.364  1.00  0.00     0.033 A 
ATOM      4  C   UNL     1      -0.863  -0.451   0.745  1.00  0.00     0.060 A 
ATOM      5  C   UNL     1      -1.520  -1.012   1.855  1.00  0.00     0.066 A 
ATOM      6  Cl  UNL     1      -0.630  -1.540   3.278  1.00  0.00    -0.082 Cl
ATOM      7  C   UNL     1      -2.912  -1.134   1.856  1.00  0.00     0.048 A 
ATOM      8  C   UNL     1      -3.674  -0.713   0.757  1.00  0.00     0.036 A 
ENDROOT
BRANCH   8   9
ATOM      9  N   UNL     1      -5.100  -0.857   0.804  1.00  0.00    -0.398 N 
ATOM     10  H   UNL     1      -5.716  -0.562   0.015  1.00  0.00     0.156 HD
ATOM     11  H   UNL     1      -5.564  -1.269   1.645  1.00  0.00     0.156 HD
ENDBRANCH   8   9
BRANCH   4  12
ATOM     12  N   UNL     1       0.572  -0.345   0.724  1.00  0.00    -0.321 N 
ATOM     13  C   UNL     1       1.271   0.765   0.135  1.00  0.00     0.255 C 
ATOM     14  H   UNL     1       1.131  -1.061   1.239  1.00  0.00     0.170 HD
ATOM     15  O   UNL     1       0.662   1.855  -0.055  1.00  0.00    -0.269 OA
BRANCH  13  16
ATOM     16  C   UNL     1       2.709   0.664  -0.211  1.00  0.00     0.040 A 
ATOM     17  C   UNL     1       3.482   1.830  -0.369  1.00  0.00     0.014 A 
ATOM     18  C   UNL     1       3.320  -0.589  -0.411  1.00  0.00     0.014 A 
ATOM     19  C   UNL     1       4.838   1.742  -0.702  1.00  0.00     0.001 A 
ATOM     20  C   UNL     1       4.676  -0.670  -0.744  1.00  0.00     0.001 A 
ATOM     21  C   UNL     1       5.435   0.494  -0.887  1.00  0.00     0.000 A 
ENDBRANCH  13  16
ENDBRANCH   4  12
TORSDOF 3
