REMARK SMILES O=[N+]([O-])c1ccc([C@H]2C=C(c3ccccc3)Nc3ccccc3S2)cc1
REMARK SMILES IDX 24 1 23 2 18 3 19 4 20 5 22 6 21 7 17 8 10 10 11 11 12 12
REMARK SMILES IDX 16 13 13 14 15 15 14 16 9 17 8 19 7 21 6 22 25 23 5 24 26 25
REMARK SMILES IDX 4 26 2 27 1 28 3 29
REMARK H PARENT 17 9
REMARK Flexibility Score:   84.900
ROOT
ATOM      1  S   UNL     1       0.657   0.600   2.799  1.00  0.00    -0.111 SA
ENDROOT
BRANCH   1   2
ATOM      2  C   UNL     1       0.665  -1.011   2.030  1.00  0.00     0.032 A 
ATOM      3  C   UNL     1      -0.469  -1.448   1.341  1.00  0.00     0.052 A 
ATOM      4  C   UNL     1      -0.468  -2.715   0.742  1.00  0.00     0.027 A 
ATOM      5  C   UNL     1       0.678  -3.515   0.789  1.00  0.00     0.002 A 
ATOM      6  C   UNL     1       1.817  -1.806   2.070  1.00  0.00     0.017 A 
ATOM      7  C   UNL     1       1.823  -3.058   1.448  1.00  0.00     0.001 A 
BRANCH   3   8
ATOM      8  N   UNL     1      -1.639  -0.627   1.272  1.00  0.00    -0.354 N 
ATOM      9  H   UNL     1      -2.545  -1.116   1.452  1.00  0.00     0.167 HD
BRANCH   8  10
ATOM     10  C   UNL     1      -1.711   0.636   0.573  1.00  0.00     0.043 C 
BRANCH  10  11
ATOM     11  C   UNL     1      -2.978   0.945  -0.138  1.00  0.00    -0.002 A 
ATOM     12  C   UNL     1      -3.607  -0.047  -0.911  1.00  0.00     0.010 A 
ATOM     13  C   UNL     1      -3.581   2.214  -0.034  1.00  0.00     0.010 A 
ATOM     14  C   UNL     1      -4.806   0.228  -1.576  1.00  0.00     0.001 A 
ATOM     15  C   UNL     1      -4.781   2.483  -0.700  1.00  0.00     0.001 A 
ATOM     16  C   UNL     1      -5.391   1.492  -1.472  1.00  0.00     0.000 A 
ENDBRANCH  10  11
BRANCH  10  17
ATOM     17  C   UNL     1      -0.709   1.550   0.536  1.00  0.00     0.019 CG0
ATOM     18  G   UNL     1       0.651   1.496   1.203  1.00  0.00     0.000 G0
ENDBRANCH  10  17
ENDBRANCH   8  10
ENDBRANCH   3   8
ENDBRANCH   1   2
BRANCH   1  19
ATOM     19  C   UNL     1       0.651   1.496   1.203  1.00  0.00     0.106 CG0
ATOM     20  G   UNL     1      -0.709   1.550   0.536  1.00  0.00     0.000 G0
BRANCH  19  21
ATOM     21  C   UNL     1       1.775   1.057   0.277  1.00  0.00    -0.030 A 
ATOM     22  C   UNL     1       3.093   1.430   0.584  1.00  0.00     0.012 A 
ATOM     23  C   UNL     1       1.550   0.223  -0.836  1.00  0.00     0.012 A 
ATOM     24  C   UNL     1       4.161   0.996  -0.206  1.00  0.00     0.086 A 
ATOM     25  C   UNL     1       2.619  -0.217  -1.622  1.00  0.00     0.086 A 
ATOM     26  C   UNL     1       3.936   0.166  -1.317  1.00  0.00     0.269 A 
BRANCH  26  27
ATOM     27  N   UNL     1       5.039  -0.285  -2.123  1.00  0.00     0.062 N 
ATOM     28  O   UNL     1       4.851  -1.058  -3.086  1.00  0.00    -0.258 OA
ATOM     29  O   UNL     1       6.325   0.112  -1.834  1.00  0.00    -0.258 OA
ENDBRANCH  26  27
ENDBRANCH  19  21
ENDBRANCH   1  19
TORSDOF 3
