REMARK SMILES Cc1nc2[nH]ccc2c(=NCc2ccccc2)[nH]1
REMARK SMILES IDX 10 1 9 2 18 3 2 4 3 5 8 6 4 7 7 8 5 9 6 10 1 12 11 14 12 15
REMARK SMILES IDX 13 16 17 17 14 18 16 19 15 20
REMARK H PARENT 18 11 5 13
ROOT
ATOM      1  N   UNL     1       0.203  -0.663  -1.607  1.00  0.00    -0.263 NA
ENDROOT
BRANCH   1   2
ATOM      2  C   UNL     1      -0.829  -0.422  -0.847  1.00  0.00     0.137 A 
ATOM      3  N   UNL     1      -1.020   0.784  -0.215  1.00  0.00    -0.328 N 
ATOM      4  C   UNL     1      -2.113   1.000   0.592  1.00  0.00     0.106 A 
ATOM      5  N   UNL     1      -3.046   0.017   0.771  1.00  0.00    -0.217 NA
ATOM      6  C   UNL     1      -1.788  -1.409  -0.650  1.00  0.00     0.061 A 
ATOM      7  C   UNL     1      -2.863  -1.169   0.146  1.00  0.00     0.143 A 
ATOM      8  C   UNL     1      -1.908  -2.701  -1.120  1.00  0.00     0.033 A 
ATOM      9  N   UNL     1      -3.673  -2.236   0.216  1.00  0.00    -0.346 N 
ATOM     10  C   UNL     1      -3.091  -3.180  -0.559  1.00  0.00     0.085 A 
ATOM     11  H   UNL     1      -0.341   1.566  -0.338  1.00  0.00     0.169 HD
ATOM     12  C   UNL     1      -2.300   2.325   1.260  1.00  0.00     0.087 C 
ATOM     13  H   UNL     1      -4.563  -2.322   0.755  1.00  0.00     0.167 HD
ENDBRANCH   1   2
BRANCH   1  14
ATOM     14  C   UNL     1       1.309   0.251  -1.897  1.00  0.00     0.180 C 
BRANCH  14  15
ATOM     15  C   UNL     1       2.197   0.418  -0.690  1.00  0.00    -0.027 A 
ATOM     16  C   UNL     1       2.485   1.698  -0.186  1.00  0.00     0.005 A 
ATOM     17  C   UNL     1       2.771  -0.708  -0.075  1.00  0.00     0.005 A 
ATOM     18  C   UNL     1       3.316   1.845   0.929  1.00  0.00     0.000 A 
ATOM     19  C   UNL     1       3.602  -0.556   1.039  1.00  0.00     0.000 A 
ATOM     20  C   UNL     1       3.872   0.720   1.542  1.00  0.00     0.000 A 
ENDBRANCH  14  15
ENDBRANCH   1  14
TORSDOF 3
