REMARK SMILES Nc1ncnc2c1cnn2C1CCCCC1
REMARK SMILES IDX 2 1 3 2 4 3 5 4 6 5 7 6 8 7 9 8 10 9 1 10 11 13 12 14 16 15
REMARK SMILES IDX 13 16 15 17 14 18
REMARK H PARENT 1 11 1 12
ROOT
ATOM      1  C   UNL     1       3.926  -0.449  -0.248  1.00  0.00     0.137 A 
ATOM      2  N   UNL     1       3.892  -1.090  -1.454  1.00  0.00    -0.219 NA
ATOM      3  C   UNL     1       2.707  -1.330  -2.104  1.00  0.00     0.226 A 
ATOM      4  N   UNL     1       1.521  -0.928  -1.556  1.00  0.00    -0.217 NA
ATOM      5  C   UNL     1       1.555  -0.290  -0.361  1.00  0.00     0.163 A 
ATOM      6  C   UNL     1       2.714  -0.045   0.300  1.00  0.00     0.081 A 
ATOM      7  C   UNL     1       2.343   0.597   1.464  1.00  0.00     0.149 A 
ATOM      8  N   UNL     1       0.991   0.716   1.471  1.00  0.00    -0.178 NA
ATOM      9  N   UNL     1       0.516   0.178   0.349  1.00  0.00    -0.244 N 
ENDROOT
BRANCH   1  10
ATOM     10  N   UNL     1       5.170  -0.214   0.413  1.00  0.00    -0.383 N 
ATOM     11  H   UNL     1       5.208   0.274   1.335  1.00  0.00     0.158 HD
ATOM     12  H   UNL     1       6.064  -0.531  -0.024  1.00  0.00     0.158 HD
ENDBRANCH   1  10
BRANCH   9  13
ATOM     13  C   UNL     1      -0.906   0.078   0.011  1.00  0.00     0.110 C 
ATOM     14  C   UNL     1      -1.604  -0.908   0.963  1.00  0.00     0.027 C 
ATOM     15  C   UNL     1      -1.571   1.465   0.079  1.00  0.00     0.027 C 
ATOM     16  C   UNL     1      -3.105  -0.999   0.656  1.00  0.00     0.002 C 
ATOM     17  C   UNL     1      -3.070   1.370  -0.229  1.00  0.00     0.002 C 
ATOM     18  C   UNL     1      -3.765   0.384   0.719  1.00  0.00     0.000 C 
ENDBRANCH   9  13
TORSDOF 2
