REMARK SMILES C=CC[N@@H+]1CC[C@]23c4c5ccc(O)c4O[C@H]2C(=O)CC[C@@]3(O)[C@H]1C5
REMARK SMILES IDX 4 1 5 2 23 3 6 4 7 5 8 6 16 7 21 8 9 9 14 10 15 11 17 12
REMARK SMILES IDX 20 13 10 14 24 15 12 16 18 17 19 18 11 19 3 21 2 22 1 23
REMARK SMILES IDX 22 24 13 26
REMARK H PARENT 4 20 22 25 13 27
ROOT
ATOM      1  N   UNL     1       2.961  -0.336   1.005  1.00  0.00    -0.327 N 
ATOM      2  C   UNL     1       2.857  -0.714   2.437  1.00  0.00     0.264 C 
ATOM      3  C   UNL     1       1.715  -0.580   0.182  1.00  0.00     0.222 C 
ATOM      4  C   UNL     1       1.569  -0.198   3.115  1.00  0.00     0.081 C 
ATOM      5  C   UNL     1       0.301  -0.261   2.205  1.00  0.00     0.083 C 
ATOM      6  C   UNL     1       0.029   1.111   1.665  1.00  0.00     0.015 A 
ATOM      7  C   UNL     1      -1.005  -0.490   3.054  1.00  0.00     0.254 C 
ATOM      8  C   UNL     1       0.540  -1.226   1.013  1.00  0.00     0.131 C 
ATOM      9  C   UNL     1       0.532   1.658   0.483  1.00  0.00    -0.034 A 
ATOM     10  C   UNL     1      -0.990   1.703   2.345  1.00  0.00     0.166 A 
ATOM     11  O   UNL     1      -1.551   0.822   3.247  1.00  0.00    -0.477 OA
ATOM     12  C   UNL     1      -2.058  -1.356   2.384  1.00  0.00     0.174 C 
ATOM     13  C   UNL     1      -0.761  -1.395   0.190  1.00  0.00     0.051 C 
ATOM     14  C   UNL     1       0.104   2.950   0.121  1.00  0.00     0.008 A 
ATOM     15  C   UNL     1       1.274   0.766  -0.483  1.00  0.00     0.104 C 
ATOM     16  C   UNL     1      -1.431   2.989   2.023  1.00  0.00     0.158 A 
ATOM     17  O   UNL     1      -3.096  -1.568   2.992  1.00  0.00    -0.295 OA
ATOM     18  C   UNL     1      -1.886  -2.007   1.030  1.00  0.00     0.083 C 
ATOM     19  C   UNL     1      -0.845   3.629   0.914  1.00  0.00     0.050 A 
ATOM     20  H   UNL     1       3.186   0.689   1.026  1.00  0.00     0.348 HD
ENDROOT
BRANCH   1  21
ATOM     21  C   UNL     1       4.141  -1.011   0.412  1.00  0.00     0.290 C 
BRANCH  21  22
ATOM     22  C   UNL     1       4.528  -0.393  -0.911  1.00  0.00     0.025 C 
ATOM     23  C   UNL     1       4.479  -1.081  -2.055  1.00  0.00     0.010 C 
ENDBRANCH  21  22
ENDBRANCH   1  21
BRANCH   8  24
ATOM     24  O   UNL     1       0.949  -2.513   1.432  1.00  0.00    -0.383 OA
ATOM     25  H   UNL     1       0.443  -2.762   2.248  1.00  0.00     0.211 HD
ENDBRANCH   8  24
BRANCH  16  26
ATOM     26  O   UNL     1      -2.442   3.614   2.748  1.00  0.00    -0.504 OA
ATOM     27  H   UNL     1      -2.880   3.162   3.542  1.00  0.00     0.293 HD
ENDBRANCH  16  26
TORSDOF 4
