REMARK SMILES O=c1c2ccccc2ncn1-c1ccc(Cl)cc1
REMARK SMILES IDX 1 1 2 2 3 3 4 4 5 5 6 6 7 7 8 8 9 9 10 10 11 11 12 12 13 13
REMARK SMILES IDX 18 14 14 15 17 16 15 17 16 18
REMARK H PARENT
ROOT
ATOM      1  O   UNL     1       0.187   0.662  -1.798  1.00  0.00    -0.268 OA
ATOM      2  C   UNL     1      -0.412   0.386  -0.720  1.00  0.00     0.265 A 
ATOM      3  C   UNL     1      -1.817   0.419  -0.672  1.00  0.00     0.066 A 
ATOM      4  C   UNL     1      -2.603   0.733  -1.797  1.00  0.00     0.016 A 
ATOM      5  C   UNL     1      -3.998   0.754  -1.693  1.00  0.00     0.001 A 
ATOM      6  C   UNL     1      -4.617   0.466  -0.473  1.00  0.00     0.002 A 
ATOM      7  C   UNL     1      -3.844   0.155   0.649  1.00  0.00     0.029 A 
ATOM      8  C   UNL     1      -2.448   0.131   0.554  1.00  0.00     0.078 A 
ATOM      9  N   UNL     1      -1.699  -0.169   1.644  1.00  0.00    -0.238 NA
ATOM     10  C   UNL     1      -0.344  -0.199   1.579  1.00  0.00     0.208 A 
ATOM     11  N   UNL     1       0.305   0.069   0.407  1.00  0.00    -0.267 N 
ENDROOT
BRANCH  11  12
ATOM     12  C   UNL     1       1.746   0.014   0.380  1.00  0.00     0.050 A 
ATOM     13  C   UNL     1       2.410  -0.836  -0.522  1.00  0.00     0.028 A 
ATOM     14  C   UNL     1       2.502   0.796   1.269  1.00  0.00     0.028 A 
ATOM     15  C   UNL     1       3.807  -0.893  -0.540  1.00  0.00     0.022 A 
ATOM     16  C   UNL     1       3.899   0.737   1.249  1.00  0.00     0.022 A 
ATOM     17  C   UNL     1       4.552  -0.107   0.344  1.00  0.00     0.041 A 
ATOM     18  Cl  UNL     1       6.304  -0.181   0.321  1.00  0.00    -0.084 Cl
ENDBRANCH  11  12
TORSDOF 1
