REMARK SMILES NC(=O)c1ccc(Oc2ccc(C(N)=O)cc2)cc1
REMARK SMILES IDX 8 1 7 2 4 3 5 4 19 5 6 6 18 7 2 8 1 9 3 12 9 13 10 14 17 15
REMARK SMILES IDX 11 16 16 17 12 18 13 19 14 20 15 21
REMARK H PARENT 1 10 1 11 14 22 14 23
ROOT
ATOM      1  O   UNL     1       0.266   1.407   0.760  1.00  0.00    -0.457 OA
ENDROOT
BRANCH   1   2
ATOM      2  C   UNL     1      -1.085   1.077   0.578  1.00  0.00     0.127 A 
ATOM      3  C   UNL     1      -3.828   0.487   0.269  1.00  0.00     0.039 A 
ATOM      4  C   UNL     1      -2.872  -0.545   0.274  1.00  0.00     0.017 A 
ATOM      5  C   UNL     1      -3.392   1.816   0.422  1.00  0.00     0.017 A 
ATOM      6  C   UNL     1      -1.514  -0.253   0.435  1.00  0.00     0.048 A 
ATOM      7  C   UNL     1      -2.034   2.104   0.585  1.00  0.00     0.048 A 
BRANCH   3   8
ATOM      8  C   UNL     1      -5.272   0.198   0.092  1.00  0.00     0.248 C 
ATOM      9  N   UNL     1      -5.822  -1.086   0.398  1.00  0.00    -0.366 N 
ATOM     10  H   UNL     1      -5.267  -1.818   0.893  1.00  0.00     0.159 HD
ATOM     11  H   UNL     1      -6.830  -1.279   0.207  1.00  0.00     0.159 HD
ATOM     12  O   UNL     1      -6.043   1.105  -0.325  1.00  0.00    -0.270 OA
ENDBRANCH   3   8
ENDBRANCH   1   2
BRANCH   1  13
ATOM     13  C   UNL     1       1.355   0.699   0.229  1.00  0.00     0.127 A 
ATOM     14  C   UNL     1       1.276   0.028  -1.003  1.00  0.00     0.048 A 
ATOM     15  C   UNL     1       2.565   0.704   0.929  1.00  0.00     0.048 A 
ATOM     16  C   UNL     1       2.388  -0.652  -1.508  1.00  0.00     0.017 A 
ATOM     17  C   UNL     1       3.679   0.025   0.426  1.00  0.00     0.017 A 
ATOM     18  C   UNL     1       3.605  -0.658  -0.802  1.00  0.00     0.039 A 
BRANCH  18  19
ATOM     19  C   UNL     1       4.774  -1.389  -1.349  1.00  0.00     0.248 C 
ATOM     20  N   UNL     1       6.111  -1.063  -0.958  1.00  0.00    -0.366 N 
ATOM     21  O   UNL     1       4.595  -2.312  -2.188  1.00  0.00    -0.270 OA
ATOM     22  H   UNL     1       6.910  -1.633  -1.313  1.00  0.00     0.159 HD
ATOM     23  H   UNL     1       6.327  -0.212  -0.394  1.00  0.00     0.159 HD
ENDBRANCH  18  19
ENDBRANCH   1  13
TORSDOF 4
