REMARK SMILES CCNc1ccccc1C(=O)[O-]
REMARK SMILES IDX 9 1 8 2 4 3 7 4 5 5 6 6 10 7 11 8 12 9 3 10 2 12 1 13
REMARK H PARENT 3 11
ROOT
ATOM      1  C   UNL     1      -1.318  -0.821   0.029  1.00  0.00     0.020 A 
ATOM      2  C   UNL     1      -2.441  -0.406  -0.712  1.00  0.00     0.012 A 
ATOM      3  C   UNL     1      -0.304   0.124   0.336  1.00  0.00     0.043 A 
ATOM      4  C   UNL     1      -2.549   0.908  -1.167  1.00  0.00     0.001 A 
ATOM      5  C   UNL     1      -0.429   1.444  -0.140  1.00  0.00     0.026 A 
ATOM      6  C   UNL     1      -1.542   1.828  -0.888  1.00  0.00     0.002 A 
ENDROOT
BRANCH   1   7
ATOM      7  C   UNL     1      -1.210  -2.248   0.416  1.00  0.00     0.074 C 
ATOM      8  O   UNL     1      -2.250  -2.942   0.576  1.00  0.00    -0.545 OA
ATOM      9  O   UNL     1       0.031  -2.856   0.557  1.00  0.00    -0.545 OA
ENDBRANCH   1   7
BRANCH   3  10
ATOM     10  N   UNL     1       0.803  -0.232   1.188  1.00  0.00    -0.385 N 
ATOM     11  H   UNL     1       0.643  -0.913   1.964  1.00  0.00     0.160 HD
BRANCH  10  12
ATOM     12  C   UNL     1       2.156   0.303   1.031  1.00  0.00     0.109 C 
ATOM     13  C   UNL     1       2.738  -0.084  -0.324  1.00  0.00     0.027 C 
ENDBRANCH  10  12
ENDBRANCH   3  10
TORSDOF 3
