REMARK SMILES CN(C)c1ccc(/C=C2\CC(=c3ccc4c(c3)CCCC=4)OC2=O)cc1
REMARK SMILES IDX 7 1 6 2 5 3 4 4 26 5 25 6 8 7 9 8 10 9 11 10 22 11 23 12
REMARK SMILES IDX 24 13 12 14 13 15 17 16 14 17 16 18 15 19 18 20 21 21 19 22
REMARK SMILES IDX 20 23 2 24 1 25 3 26
REMARK H PARENT
ROOT
ATOM      1  C   UNL     1       2.857  -1.691   0.710  1.00  0.00    -0.025 A 
ATOM      2  C   UNL     1       2.780  -0.415   1.287  1.00  0.00     0.010 A 
ATOM      3  C   UNL     1       3.677   0.588   0.908  1.00  0.00     0.026 A 
ATOM      4  C   UNL     1       4.684   0.334  -0.046  1.00  0.00     0.036 A 
ATOM      5  C   UNL     1       4.770  -0.962  -0.596  1.00  0.00     0.026 A 
ATOM      6  C   UNL     1       3.872  -1.963  -0.213  1.00  0.00     0.010 A 
ENDROOT
BRANCH   1   7
ATOM      7  C   UNL     1       1.936  -2.775   1.109  1.00  0.00     0.019 C 
BRANCH   7   8
ATOM      8  C   UNL     1       0.601  -2.652   1.117  1.00  0.00     0.046 C 
ATOM      9  C   UNL     1      -0.208  -1.464   0.682  1.00  0.00     0.119 C 
ATOM     10  C   UNL     1      -1.617  -2.007   0.746  1.00  0.00     0.120 C 
ATOM     11  O   UNL     1      -1.632  -3.329   1.187  1.00  0.00    -0.427 OA
ATOM     12  C   UNL     1      -0.332  -3.729   1.411  1.00  0.00     0.339 C 
ATOM     13  O   UNL     1      -0.018  -4.882   1.807  1.00  0.00    -0.246 OA
BRANCH  10  14
ATOM     14  C   UNL     1      -2.739  -1.328   0.429  1.00  0.00     0.014 A 
ATOM     15  C   UNL     1      -3.996  -1.954   0.534  1.00  0.00     0.012 A 
ATOM     16  C   UNL     1      -2.688   0.011  -0.010  1.00  0.00     0.016 A 
ATOM     17  C   UNL     1      -5.168  -1.264   0.218  1.00  0.00     0.009 A 
ATOM     18  C   UNL     1      -3.860   0.706  -0.347  1.00  0.00    -0.040 A 
ATOM     19  C   UNL     1      -5.117   0.071  -0.214  1.00  0.00    -0.026 A 
ATOM     20  C   UNL     1      -3.762   2.150  -0.786  1.00  0.00     0.036 C 
ATOM     21  C   UNL     1      -6.258   0.722  -0.512  1.00  0.00    -0.019 C 
ATOM     22  C   UNL     1      -4.971   2.550  -1.636  1.00  0.00     0.009 C 
ATOM     23  C   UNL     1      -6.269   2.171  -0.920  1.00  0.00     0.028 C 
ENDBRANCH  10  14
ENDBRANCH   7   8
ENDBRANCH   1   7
BRANCH   4  24
ATOM     24  N   UNL     1       5.615   1.375  -0.444  1.00  0.00    -0.378 N 
ATOM     25  C   UNL     1       5.827   2.553   0.407  1.00  0.00     0.143 C 
ATOM     26  C   UNL     1       6.357   1.270  -1.707  1.00  0.00     0.143 C 
ENDBRANCH   4  24
TORSDOF 4
