REMARK SMILES COc1ccc(C(=S)N2CCN(c3ccccc3Cl)CC2)cc1OC
REMARK SMILES IDX 7 1 8 2 6 3 3 4 4 5 23 6 5 7 22 8 2 9 1 10 24 11 25 12 9 13
REMARK SMILES IDX 10 14 21 15 11 16 20 17 12 18 13 19 14 20 18 21 15 22 17 23
REMARK SMILES IDX 16 24 19 25
REMARK H PARENT
ROOT
ATOM      1  C   UNL     1      -0.875   0.682   1.381  1.00  0.00     0.109 C 
ATOM      2  S   UNL     1      -1.180   1.052   2.954  1.00  0.00    -0.060 S 
ENDROOT
BRANCH   1   3
ATOM      3  C   UNL     1      -1.987   0.572   0.401  1.00  0.00     0.013 A 
ATOM      4  C   UNL     1      -4.066   0.352  -1.496  1.00  0.00     0.160 A 
ATOM      5  C   UNL     1      -4.306   0.076  -0.138  1.00  0.00     0.051 A 
ATOM      6  C   UNL     1      -2.783   0.741  -1.907  1.00  0.00     0.161 A 
ATOM      7  C   UNL     1      -3.277   0.184   0.800  1.00  0.00     0.015 A 
ATOM      8  C   UNL     1      -1.751   0.853  -0.955  1.00  0.00     0.061 A 
BRANCH   4   9
ATOM      9  O   UNL     1      -5.075   0.250  -2.467  1.00  0.00    -0.493 OA
ATOM     10  C   UNL     1      -6.419  -0.136  -2.196  1.00  0.00     0.278 C 
ENDBRANCH   4   9
BRANCH   6  11
ATOM     11  O   UNL     1      -2.570   1.007  -3.269  1.00  0.00    -0.493 OA
ATOM     12  C   UNL     1      -1.318   1.388  -3.831  1.00  0.00     0.278 C 
ENDBRANCH   6  11
ENDBRANCH   1   3
BRANCH   1  13
ATOM     13  N   UNL     1       0.485   0.496   0.949  1.00  0.00    -0.359 N 
ATOM     14  C   UNL     1       0.883  -0.787   0.352  1.00  0.00     0.139 C 
ATOM     15  C   UNL     1       1.540   1.419   1.388  1.00  0.00     0.139 C 
ATOM     16  C   UNL     1       1.895  -0.555  -0.771  1.00  0.00     0.138 C 
ATOM     17  C   UNL     1       2.542   1.645   0.255  1.00  0.00     0.138 C 
ATOM     18  N   UNL     1       2.946   0.353  -0.306  1.00  0.00    -0.367 N 
BRANCH  18  19
ATOM     19  C   UNL     1       4.316  -0.076  -0.244  1.00  0.00     0.056 A 
ATOM     20  C   UNL     1       4.662  -1.189   0.540  1.00  0.00     0.027 A 
ATOM     21  C   UNL     1       5.322   0.607  -0.957  1.00  0.00     0.064 A 
ATOM     22  C   UNL     1       5.991  -1.611   0.621  1.00  0.00     0.002 A 
ATOM     23  C   UNL     1       6.652   0.177  -0.871  1.00  0.00     0.023 A 
ATOM     24  C   UNL     1       6.986  -0.927  -0.082  1.00  0.00     0.002 A 
ATOM     25  Cl  UNL     1       4.936   1.968  -2.002  1.00  0.00    -0.082 Cl
ENDBRANCH  18  19
ENDBRANCH   1  13
TORSDOF 5
