REMARK SMILES O=C([O-])c1cccc2c1C(=O)c1cccc3snc-2c13
REMARK SMILES IDX 4 1 5 2 9 3 6 4 8 5 10 6 7 7 19 8 11 9 12 10 18 11 20 12
REMARK SMILES IDX 13 13 17 14 16 15 14 16 15 17 2 18 1 19 3 20
REMARK H PARENT
ROOT
ATOM      1  C   UNL     1      -2.466  -0.649  -0.482  1.00  0.00     0.009 A 
ATOM      2  C   UNL     1      -3.430   0.351  -0.688  1.00  0.00     0.011 A 
ATOM      3  C   UNL     1      -1.123  -0.278  -0.182  1.00  0.00     0.041 A 
ATOM      4  C   UNL     1      -3.079   1.699  -0.665  1.00  0.00     0.001 A 
ATOM      5  C   UNL     1      -0.777   1.106  -0.206  1.00  0.00     0.014 A 
ATOM      6  C   UNL     1      -0.064  -1.273   0.217  1.00  0.00     0.195 C 
ATOM      7  C   UNL     1      -1.759   2.077  -0.445  1.00  0.00     0.011 A 
ATOM      8  C   UNL     1       0.629   1.508   0.020  1.00  0.00     0.093 A 
ATOM      9  O   UNL     1      -0.357  -2.469   0.488  1.00  0.00    -0.289 OA
ATOM     10  C   UNL     1       1.337  -0.822   0.383  1.00  0.00     0.033 A 
ATOM     11  N   UNL     1       1.085   2.793  -0.027  1.00  0.00    -0.191 NA
ATOM     12  C   UNL     1       1.601   0.538   0.282  1.00  0.00     0.032 A 
ATOM     13  C   UNL     1       2.415  -1.688   0.669  1.00  0.00     0.013 A 
ATOM     14  S   UNL     1       2.729   2.685   0.270  1.00  0.00    -0.036 S 
ATOM     15  C   UNL     1       2.870   1.036   0.455  1.00  0.00     0.056 A 
ATOM     16  C   UNL     1       3.720  -1.167   0.840  1.00  0.00     0.002 A 
ATOM     17  C   UNL     1       3.959   0.216   0.733  1.00  0.00     0.021 A 
ENDROOT
BRANCH   1  18
ATOM     18  C   UNL     1      -2.901  -2.050  -0.659  1.00  0.00     0.072 C 
ATOM     19  O   UNL     1      -2.214  -2.853  -1.344  1.00  0.00    -0.545 OA
ATOM     20  O   UNL     1      -4.122  -2.469  -0.143  1.00  0.00    -0.545 OA
ENDBRANCH   1  18
TORSDOF 1
