REMARK SMILES c1ccc(-c2nnc(-c3ccccc3)nn2)cc1
REMARK SMILES IDX 5 1 6 2 7 3 8 4 15 5 16 6 4 7 1 8 2 9 18 10 3 11 17 12 9 13
REMARK SMILES IDX 10 14 14 15 11 16 13 17 12 18
REMARK H PARENT
ROOT
ATOM      1  C   UNL     1      -1.360  -0.034   0.098  1.00  0.00     0.203 A 
ATOM      2  N   UNL     1      -0.701   1.132   0.326  1.00  0.00    -0.126 NA
ATOM      3  N   UNL     1       0.630   1.165   0.368  1.00  0.00    -0.126 NA
ATOM      4  C   UNL     1       1.360   0.034   0.185  1.00  0.00     0.203 A 
ATOM      5  N   UNL     1       0.701  -1.132  -0.043  1.00  0.00    -0.126 NA
ATOM      6  N   UNL     1      -0.630  -1.165  -0.085  1.00  0.00    -0.126 NA
ENDROOT
BRANCH   1   7
ATOM      7  C   UNL     1      -2.842  -0.072   0.051  1.00  0.00     0.023 A 
ATOM      8  C   UNL     1      -5.654  -0.143  -0.038  1.00  0.00     0.000 A 
ATOM      9  C   UNL     1      -4.993   1.064   0.197  1.00  0.00     0.001 A 
ATOM     10  C   UNL     1      -4.919  -1.315  -0.229  1.00  0.00     0.001 A 
ATOM     11  C   UNL     1      -3.596   1.103   0.242  1.00  0.00     0.012 A 
ATOM     12  C   UNL     1      -3.522  -1.283  -0.185  1.00  0.00     0.012 A 
ENDBRANCH   1   7
BRANCH   4  13
ATOM     13  C   UNL     1       2.842   0.072   0.232  1.00  0.00     0.023 A 
ATOM     14  C   UNL     1       3.596  -1.103   0.041  1.00  0.00     0.012 A 
ATOM     15  C   UNL     1       3.522   1.283   0.468  1.00  0.00     0.012 A 
ATOM     16  C   UNL     1       4.993  -1.064   0.086  1.00  0.00     0.001 A 
ATOM     17  C   UNL     1       4.919   1.315   0.512  1.00  0.00     0.001 A 
ATOM     18  C   UNL     1       5.654   0.143   0.321  1.00  0.00     0.000 A 
ENDBRANCH   4  13
TORSDOF 2
