REMARK SMILES CC(=O)Oc1c(C)c(OC(C)=O)c2c(c1C(C)=O)O[C@H]1C=C(O)[C@H](C(C)=O)C(=O)[C@@]21C
REMARK SMILES IDX 22 1 21 2 20 3 19 4 14 5 15 6 5 7 6 8 7 9 8 10 13 11 30 12
REMARK SMILES IDX 31 13 28 14 29 15 24 16 23 17 25 19 26 20 27 21 16 22 17 23
REMARK SMILES IDX 18 24 9 25 10 26 11 27 12 28 4 29 2 30 1 31 3 32
REMARK H PARENT 23 18
ROOT
ATOM      1  C   UNL     1      -3.609  -1.628   0.188  1.00  0.00     0.110 C 
ATOM      2  C   UNL     1      -2.922  -1.990  -0.898  1.00  0.00     0.061 C 
ATOM      3  C   UNL     1      -1.666  -1.315  -1.354  1.00  0.00     0.218 C 
ATOM      4  O   UNL     1      -0.528  -2.052  -0.925  1.00  0.00    -0.483 OA
ATOM      5  C   UNL     1       0.471  -1.200  -0.508  1.00  0.00     0.142 A 
ATOM      6  C   UNL     1       1.777  -1.562  -0.150  1.00  0.00     0.103 A 
ATOM      7  C   UNL     1       2.648  -0.532   0.286  1.00  0.00     0.152 A 
ATOM      8  C   UNL     1       2.205   0.819   0.326  1.00  0.00     0.036 A 
ATOM      9  C   UNL     1       3.149   1.909   0.767  1.00  0.00     0.052 C 
ATOM     10  C   UNL     1       0.888   1.138  -0.092  1.00  0.00     0.145 A 
ATOM     11  C   UNL     1       0.032   0.097  -0.477  1.00  0.00     0.056 A 
ATOM     12  C   UNL     1      -1.432   0.149  -0.850  1.00  0.00     0.100 C 
ATOM     13  C   UNL     1      -1.709   1.156  -1.984  1.00  0.00     0.029 C 
ATOM     14  C   UNL     1      -2.245   0.507   0.384  1.00  0.00     0.165 C 
ATOM     15  O   UNL     1      -2.067   1.599   0.908  1.00  0.00    -0.297 OA
ATOM     16  C   UNL     1      -3.216  -0.451   1.043  1.00  0.00     0.189 C 
ENDROOT
BRANCH   1  17
ATOM     17  O   UNL     1      -4.715  -2.388   0.580  1.00  0.00    -0.511 OA
ATOM     18  H   UNL     1      -5.024  -3.202   0.059  1.00  0.00     0.293 HD
ENDBRANCH   1  17
BRANCH  16  19
ATOM     19  C   UNL     1      -4.461   0.294   1.477  1.00  0.00     0.147 C 
ATOM     20  C   UNL     1      -5.347   0.984   0.479  1.00  0.00     0.089 C 
ATOM     21  O   UNL     1      -4.756   0.336   2.663  1.00  0.00    -0.299 OA
ENDBRANCH  16  19
BRANCH   6  22
ATOM     22  C   UNL     1       2.229  -2.978  -0.231  1.00  0.00     0.167 C 
ATOM     23  C   UNL     1       1.642  -3.942  -1.217  1.00  0.00     0.094 C 
ATOM     24  O   UNL     1       3.108  -3.404   0.566  1.00  0.00    -0.294 OA
ENDBRANCH   6  22
BRANCH  10  25
ATOM     25  O   UNL     1       0.421   2.457  -0.105  1.00  0.00    -0.426 OA
BRANCH  25  26
ATOM     26  C   UNL     1       0.943   3.444  -0.947  1.00  0.00     0.308 C 
ATOM     27  C   UNL     1       0.446   4.844  -0.826  1.00  0.00     0.139 C 
ATOM     28  O   UNL     1       1.774   3.151  -1.849  1.00  0.00    -0.252 OA
ENDBRANCH  25  26
ENDBRANCH  10  25
BRANCH   7  29
ATOM     29  O   UNL     1       3.965  -0.843   0.646  1.00  0.00    -0.425 OA
BRANCH  29  30
ATOM     30  C   UNL     1       4.355  -1.034   1.977  1.00  0.00     0.308 C 
ATOM     31  C   UNL     1       5.779  -1.347   2.289  1.00  0.00     0.139 C 
ATOM     32  O   UNL     1       3.510  -0.973   2.911  1.00  0.00    -0.252 OA
ENDBRANCH  29  30
ENDBRANCH   7  29
TORSDOF 7
