REMARK SMILES Cc1ccc(NC(=O)N2CCCCC2)cc1[N+](=O)[O-]
REMARK SMILES IDX 1 1 2 2 3 3 4 4 5 5 15 6 16 7 17 8 18 9 19 10 6 11 7 12 9 13
REMARK SMILES IDX 10 14 14 15 11 16 13 17 12 18 8 20
REMARK H PARENT 6 19
ROOT
ATOM      1  C   UNL     1       3.040  -4.614   5.267  1.00  0.00     0.052 C 
ATOM      2  C   UNL     1       2.227  -3.739   4.351  1.00  0.00     0.027 A 
ATOM      3  C   UNL     1       0.838  -3.664   4.547  1.00  0.00     0.012 A 
ATOM      4  C   UNL     1       0.038  -2.897   3.699  1.00  0.00     0.027 A 
ATOM      5  C   UNL     1       0.610  -2.194   2.629  1.00  0.00     0.049 A 
ATOM      6  C   UNL     1       1.999  -2.232   2.452  1.00  0.00     0.112 A 
ATOM      7  C   UNL     1       2.822  -2.988   3.306  1.00  0.00     0.274 A 
ENDROOT
BRANCH   7   8
ATOM      8  N   UNL     1       4.247  -2.981   3.096  1.00  0.00     0.063 N 
ATOM      9  O   UNL     1       4.711  -2.810   1.950  1.00  0.00    -0.258 OA
ATOM     10  O   UNL     1       5.114  -2.988   4.164  1.00  0.00    -0.258 OA
ENDBRANCH   7   8
BRANCH   5  11
ATOM     11  N   UNL     1      -0.192  -1.383   1.752  1.00  0.00    -0.308 N 
ATOM     12  C   UNL     1      -1.552  -1.690   1.399  1.00  0.00     0.321 C 
ATOM     13  N   UNL     1      -2.416  -0.673   0.853  1.00  0.00    -0.325 N 
ATOM     14  C   UNL     1      -3.427  -1.035  -0.152  1.00  0.00     0.121 C 
ATOM     15  C   UNL     1      -2.104   0.752   1.044  1.00  0.00     0.121 C 
ATOM     16  C   UNL     1      -4.707  -0.222   0.055  1.00  0.00     0.022 C 
ATOM     17  C   UNL     1      -3.389   1.564   1.237  1.00  0.00     0.022 C 
ATOM     18  C   UNL     1      -4.396   1.275   0.121  1.00  0.00     0.004 C 
ATOM     19  H   UNL     1       0.272  -0.586   1.261  1.00  0.00     0.171 HD
ATOM     20  O   UNL     1      -1.981  -2.869   1.530  1.00  0.00    -0.248 OA
ENDBRANCH   5  11
TORSDOF 2
