REMARK SMILES CC(C)(C)C(=O)Nc1ccc(NC(=O)C(C)(C)C)cc1
REMARK SMILES IDX 8 1 9 2 10 3 11 4 19 5 20 6 7 7 5 8 6 9 2 11 1 12 3 13 4 14
REMARK SMILES IDX 12 15 13 16 14 18 15 19 16 20 17 21 18 22
REMARK H PARENT 7 10 12 17
ROOT
ATOM      1  C   UNL     1      -1.413  -0.705  -0.154  1.00  0.00     0.041 A 
ATOM      2  C   UNL     1      -0.698   0.454   0.195  1.00  0.00     0.028 A 
ATOM      3  C   UNL     1       0.700   0.455   0.176  1.00  0.00     0.028 A 
ATOM      4  C   UNL     1       1.408  -0.711  -0.167  1.00  0.00     0.041 A 
ATOM      5  C   UNL     1       0.693  -1.865  -0.516  1.00  0.00     0.028 A 
ATOM      6  C   UNL     1      -0.705  -1.867  -0.495  1.00  0.00     0.028 A 
ENDROOT
BRANCH   1   7
ATOM      7  N   UNL     1      -2.850  -0.740  -0.119  1.00  0.00    -0.326 N 
ATOM      8  C   UNL     1      -3.685   0.393  -0.420  1.00  0.00     0.229 C 
ATOM      9  O   UNL     1      -3.207   1.361  -1.074  1.00  0.00    -0.274 OA
ATOM     10  H   UNL     1      -3.308  -1.661   0.056  1.00  0.00     0.169 HD
BRANCH   8  11
ATOM     11  C   UNL     1      -5.159   0.390  -0.035  1.00  0.00     0.041 C 
ATOM     12  C   UNL     1      -5.774   1.796  -0.211  1.00  0.00     0.021 C 
ATOM     13  C   UNL     1      -5.314  -0.028   1.441  1.00  0.00     0.021 C 
ATOM     14  C   UNL     1      -5.917  -0.602  -0.937  1.00  0.00     0.021 C 
ENDBRANCH   8  11
ENDBRANCH   1   7
BRANCH   4  15
ATOM     15  N   UNL     1       2.845  -0.728  -0.218  1.00  0.00    -0.326 N 
ATOM     16  C   UNL     1       3.687   0.050   0.652  1.00  0.00     0.229 C 
ATOM     17  H   UNL     1       3.298  -1.407  -0.870  1.00  0.00     0.169 HD
ATOM     18  O   UNL     1       3.213   0.505   1.731  1.00  0.00    -0.274 OA
BRANCH  16  19
ATOM     19  C   UNL     1       5.162   0.249   0.326  1.00  0.00     0.041 C 
ATOM     20  C   UNL     1       5.784   1.325   1.242  1.00  0.00     0.021 C 
ATOM     21  C   UNL     1       5.912  -1.079   0.536  1.00  0.00     0.021 C 
ATOM     22  C   UNL     1       5.316   0.707  -1.138  1.00  0.00     0.021 C 
ENDBRANCH  16  19
ENDBRANCH   4  15
TORSDOF 4
