REMARK SMILES C=c1ccc(=C(O)c2c([C@@H](C)C(=O)OCC)n(C)c3ccccc23)cn1
REMARK SMILES IDX 10 1 11 2 9 3 8 4 24 5 17 6 23 7 19 8 22 9 20 10 21 11 18 12
REMARK SMILES IDX 6 13 7 14 5 16 4 17 25 18 3 19 26 20 2 21 1 22 12 23 13 24
REMARK SMILES IDX 14 25 15 26 16 27
REMARK H PARENT 7 15
ROOT
ATOM      1  C   UNL     1       1.633   0.526   0.666  1.00  0.00     0.143 C 
ATOM      2  C   UNL     1       2.705   0.003   1.631  1.00  0.00     0.027 C 
ENDROOT
BRANCH   1   3
ATOM      3  C   UNL     1       0.734  -0.599   0.186  1.00  0.00     0.043 A 
ATOM      4  C   UNL     1      -0.619  -0.720   0.521  1.00  0.00     0.047 A 
ATOM      5  C   UNL     1      -1.056  -1.882  -0.082  1.00  0.00     0.011 A 
ATOM      6  N   UNL     1       1.107  -1.634  -0.623  1.00  0.00    -0.346 N 
ATOM      7  C   UNL     1      -2.295  -2.524  -0.033  1.00  0.00     0.011 A 
ATOM      8  C   UNL     1       0.011  -2.413  -0.761  1.00  0.00     0.049 A 
ATOM      9  C   UNL     1      -2.434  -3.740  -0.723  1.00  0.00     0.001 A 
ATOM     10  C   UNL     1      -0.101  -3.631  -1.445  1.00  0.00     0.027 A 
ATOM     11  C   UNL     1      -1.342  -4.291  -1.426  1.00  0.00     0.002 A 
ATOM     12  C   UNL     1       2.442  -1.952  -1.135  1.00  0.00     0.150 C 
BRANCH   4  13
ATOM     13  C   UNL     1      -1.395   0.139   1.442  1.00  0.00     0.134 C 
BRANCH  13  14
ATOM     14  O   UNL     1      -0.888   0.236   2.744  1.00  0.00    -0.507 OA
ATOM     15  H   UNL     1      -1.184   0.919   3.427  1.00  0.00     0.293 HD
ENDBRANCH  13  14
BRANCH  13  16
ATOM     16  C   UNL     1      -2.523   0.793   1.043  1.00  0.00     0.035 A 
ATOM     17  C   UNL     1      -3.369   1.450   1.965  1.00  0.00     0.016 A 
ATOM     18  C   UNL     1      -2.898   0.844  -0.321  1.00  0.00     0.123 A 
ATOM     19  C   UNL     1      -4.517   2.117   1.534  1.00  0.00     0.028 A 
ATOM     20  N   UNL     1      -4.020   1.503  -0.711  1.00  0.00    -0.257 NA
ATOM     21  C   UNL     1      -4.835   2.136   0.172  1.00  0.00     0.056 A 
ATOM     22  C   UNL     1      -5.924   2.764  -0.270  1.00  0.00     0.039 C 
ENDBRANCH  13  16
ENDBRANCH   4  13
ENDBRANCH   1   3
BRANCH   1  23
ATOM     23  C   UNL     1       2.208   1.299  -0.491  1.00  0.00     0.314 C 
ATOM     24  O   UNL     1       1.428   1.804  -1.346  1.00  0.00    -0.252 OA
BRANCH  23  25
ATOM     25  O   UNL     1       3.591   1.478  -0.608  1.00  0.00    -0.465 OA
BRANCH  25  26
ATOM     26  C   UNL     1       4.187   2.180  -1.693  1.00  0.00     0.229 C 
ATOM     27  C   UNL     1       5.698   2.176  -1.532  1.00  0.00     0.049 C 
ENDBRANCH  25  26
ENDBRANCH  23  25
ENDBRANCH   1  23
TORSDOF 7
