REMARK SMILES CC[C@@H](C)N=c1[nH]c2c(c(=O)n(C)c(=O)n2C)n1C
REMARK SMILES IDX 5 1 6 2 7 3 8 4 18 5 16 6 9 7 14 8 10 9 12 10 19 12 17 13
REMARK SMILES IDX 15 14 11 15 13 16 3 17 4 18 2 19 1 20
REMARK H PARENT 7 11
ROOT
ATOM      1  N   UNL     1      -1.799   0.788   0.312  1.00  0.00    -0.249 NA
ENDROOT
BRANCH   1   2
ATOM      2  C   UNL     1      -0.548   0.432   0.175  1.00  0.00     0.204 A 
ATOM      3  N   UNL     1       0.407   1.010   0.938  1.00  0.00    -0.310 N 
ATOM      4  C   UNL     1       1.559   0.488   0.490  1.00  0.00     0.146 A 
ATOM      5  N   UNL     1      -0.031  -0.463  -0.733  1.00  0.00    -0.308 N 
ATOM      6  N   UNL     1       2.816   0.806   0.906  1.00  0.00    -0.281 N 
ATOM      7  C   UNL     1       1.311  -0.379  -0.524  1.00  0.00     0.151 A 
ATOM      8  C   UNL     1       3.878   0.226   0.248  1.00  0.00     0.332 A 
ATOM      9  C   UNL     1       2.387  -0.959  -1.205  1.00  0.00     0.282 A 
ATOM     10  N   UNL     1       3.665  -0.672  -0.782  1.00  0.00    -0.261 N 
ATOM     11  H   UNL     1       0.270   1.734   1.678  1.00  0.00     0.171 HD
ATOM     12  C   UNL     1      -0.708  -1.247  -1.773  1.00  0.00     0.154 C 
ATOM     13  C   UNL     1       3.010   1.780   1.990  1.00  0.00     0.157 C 
ATOM     14  O   UNL     1       5.059   0.528   0.581  1.00  0.00    -0.247 OA
ATOM     15  O   UNL     1       2.197  -1.708  -2.200  1.00  0.00    -0.267 OA
ATOM     16  C   UNL     1       4.817  -1.258  -1.490  1.00  0.00     0.159 C 
ENDBRANCH   1   2
BRANCH   1  17
ATOM     17  C   UNL     1      -3.028   0.346  -0.347  1.00  0.00     0.106 C 
ATOM     18  C   UNL     1      -4.013   1.520  -0.391  1.00  0.00     0.033 C 
BRANCH  17  19
ATOM     19  C   UNL     1      -3.628  -0.874   0.391  1.00  0.00     0.023 C 
ATOM     20  C   UNL     1      -4.045  -0.583   1.836  1.00  0.00     0.006 C 
ENDBRANCH  17  19
ENDBRANCH   1  17
TORSDOF 3
