REMARK SMILES Nc1ccc(Br)cc1Br
REMARK SMILES IDX 2 1 3 2 4 3 5 4 6 5 7 6 8 7 9 8 1 9
REMARK H PARENT 1 10 1 11
ROOT
ATOM      1  C   UNL     1      -0.913   0.171   0.120  1.00  0.00     0.046 A 
ATOM      2  C   UNL     1      -0.001   1.100   0.645  1.00  0.00     0.028 A 
ATOM      3  C   UNL     1       1.375   0.903   0.498  1.00  0.00     0.018 A 
ATOM      4  C   UNL     1       1.853  -0.225  -0.173  1.00  0.00     0.019 A 
ATOM      5  Br  UNL     1       3.733  -0.493  -0.373  1.00  0.00    -0.051 Br
ATOM      6  C   UNL     1       0.954  -1.157  -0.700  1.00  0.00     0.033 A 
ATOM      7  C   UNL     1      -0.427  -0.968  -0.558  1.00  0.00     0.042 A 
ATOM      8  Br  UNL     1      -1.598  -2.288  -1.306  1.00  0.00    -0.049 Br
ENDROOT
BRANCH   1   9
ATOM      9  N   UNL     1      -2.318   0.398   0.286  1.00  0.00    -0.398 N 
ATOM     10  H   UNL     1      -2.661   1.246   0.790  1.00  0.00     0.156 HD
ATOM     11  H   UNL     1      -3.034  -0.263  -0.086  1.00  0.00     0.156 HD
ENDBRANCH   1   9
TORSDOF 1
