REMARK SMILES COc1ccccc1/C=C(\C#N)C(=O)[O-]
REMARK SMILES IDX 9 1 10 2 13 3 14 4 15 5 11 6 12 7 8 8 7 9 3 10 6 11 4 12
REMARK SMILES IDX 5 13 2 14 1 15
REMARK H PARENT
ROOT
ATOM      1  C   UNL     1       1.307  -0.650   0.512  1.00  0.00     0.033 C 
ENDROOT
BRANCH   1   2
ATOM      2  C   UNL     1       2.494  -0.678  -0.125  1.00  0.00     0.075 C 
BRANCH   2   3
ATOM      3  C   UNL     1       3.486  -1.732   0.184  1.00  0.00     0.082 C 
ATOM      4  O   UNL     1       4.578  -1.778  -0.443  1.00  0.00    -0.544 OA
ATOM      5  O   UNL     1       3.234  -2.681   1.169  1.00  0.00    -0.544 OA
ENDBRANCH   2   3
BRANCH   2   6
ATOM      6  C   UNL     1       2.809   0.273  -1.169  1.00  0.00     0.101 C 
ATOM      7  N   UNL     1       3.062   1.032  -2.005  1.00  0.00    -0.192 NA
ENDBRANCH   2   6
ENDBRANCH   1   2
BRANCH   1   8
ATOM      8  C   UNL     1       0.250   0.364   0.280  1.00  0.00     0.018 A 
ATOM      9  C   UNL     1       0.556   1.737   0.304  1.00  0.00     0.012 A 
ATOM     10  C   UNL     1      -1.087  -0.048   0.110  1.00  0.00     0.126 A 
ATOM     11  C   UNL     1      -0.449   2.689   0.120  1.00  0.00     0.001 A 
ATOM     12  C   UNL     1      -2.092   0.924  -0.073  1.00  0.00     0.047 A 
ATOM     13  C   UNL     1      -1.769   2.283  -0.072  1.00  0.00     0.004 A 
BRANCH  10  14
ATOM     14  O   UNL     1      -1.381  -1.422   0.117  1.00  0.00    -0.496 OA
ATOM     15  C   UNL     1      -2.684  -1.971  -0.046  1.00  0.00     0.278 C 
ENDBRANCH  10  14
ENDBRANCH   1   8
TORSDOF 5
