REMARK SMILES CSc1nc(N)c(C(=O)NC2CCCCC2)s1
REMARK SMILES IDX 3 1 4 2 5 3 7 4 17 5 2 6 1 7 6 8 8 11 10 12 9 13 11 15 12 16
REMARK SMILES IDX 16 17 13 18 15 19 14 20
REMARK H PARENT 6 9 6 10 10 14
ROOT
ATOM      1  C   UNL     1       3.762  -0.047  -0.477  1.00  0.00     0.152 A 
ATOM      2  N   UNL     1       3.873   1.291  -0.350  1.00  0.00    -0.212 NA
ATOM      3  C   UNL     1       2.700   1.864   0.033  1.00  0.00     0.148 A 
ATOM      4  C   UNL     1       1.633   0.968   0.215  1.00  0.00     0.137 A 
ATOM      5  S   UNL     1       2.213  -0.580  -0.119  1.00  0.00    -0.100 S 
ENDROOT
BRANCH   1   6
ATOM      6  S   UNL     1       5.115  -1.111  -0.964  1.00  0.00    -0.099 SA
ATOM      7  C   UNL     1       4.739  -0.970  -2.738  1.00  0.00     0.093 C 
ENDBRANCH   1   6
BRANCH   3   8
ATOM      8  N   UNL     1       2.620   3.273   0.265  1.00  0.00    -0.382 N 
ATOM      9  H   UNL     1       3.447   3.876   0.060  1.00  0.00     0.158 HD
ATOM     10  H   UNL     1       1.792   3.718   0.714  1.00  0.00     0.158 HD
ENDBRANCH   3   8
BRANCH   4  11
ATOM     11  C   UNL     1       0.230   1.271   0.564  1.00  0.00     0.265 C 
ATOM     12  N   UNL     1      -0.636   0.229   1.042  1.00  0.00    -0.348 N 
ATOM     13  O   UNL     1      -0.219   2.439   0.419  1.00  0.00    -0.268 OA
ATOM     14  H   UNL     1      -0.206  -0.680   1.324  1.00  0.00     0.164 HD
BRANCH  12  15
ATOM     15  C   UNL     1      -2.078   0.435   1.237  1.00  0.00     0.082 C 
ATOM     16  C   UNL     1      -2.805   0.545  -0.119  1.00  0.00     0.025 C 
ATOM     17  C   UNL     1      -2.693  -0.694   2.092  1.00  0.00     0.025 C 
ATOM     18  C   UNL     1      -2.825  -0.796  -0.861  1.00  0.00     0.002 C 
ATOM     19  C   UNL     1      -2.758  -2.033   1.340  1.00  0.00     0.002 C 
ATOM     20  C   UNL     1      -3.480  -1.884  -0.003  1.00  0.00     0.000 C 
ENDBRANCH  12  15
ENDBRANCH   4  11
TORSDOF 4
