REMARK SMILES c1ccc2c(c1)Oc1cccc3cccc-2c13
REMARK SMILES IDX 1 1 2 2 3 3 4 4 5 5 6 6 7 7 8 8 9 9 10 10 11 11 12 12 13 13
REMARK SMILES IDX 14 14 15 15 16 16 17 17
REMARK H PARENT
ROOT
ATOM      1  C   UNL     1      -4.009  -0.717  -0.512  1.00  0.00     0.004 A 
ATOM      2  C   UNL     1      -3.809   0.664  -0.532  1.00  0.00     0.001 A 
ATOM      3  C   UNL     1      -2.524   1.193  -0.378  1.00  0.00     0.012 A 
ATOM      4  C   UNL     1      -1.414   0.338  -0.201  1.00  0.00     0.025 A 
ATOM      5  C   UNL     1      -1.634  -1.058  -0.182  1.00  0.00     0.135 A 
ATOM      6  C   UNL     1      -2.924  -1.575  -0.337  1.00  0.00     0.048 A 
ATOM      7  O   UNL     1      -0.564  -1.940  -0.009  1.00  0.00    -0.456 OA
ATOM      8  C   UNL     1       0.748  -1.488   0.151  1.00  0.00     0.135 A 
ATOM      9  C   UNL     1       1.779  -2.417   0.321  1.00  0.00     0.048 A 
ATOM     10  C   UNL     1       3.097  -1.985   0.482  1.00  0.00     0.005 A 
ATOM     11  C   UNL     1       3.396  -0.621   0.475  1.00  0.00     0.009 A 
ATOM     12  C   UNL     1       2.372   0.325   0.306  1.00  0.00    -0.014 A 
ATOM     13  C   UNL     1       2.664   1.694   0.298  1.00  0.00     0.009 A 
ATOM     14  C   UNL     1       1.642   2.625   0.130  1.00  0.00     0.001 A 
ATOM     15  C   UNL     1       0.319   2.206  -0.033  1.00  0.00     0.009 A 
ATOM     16  C   UNL     1      -0.009   0.833  -0.030  1.00  0.00    -0.003 A 
ATOM     17  C   UNL     1       1.033  -0.108   0.142  1.00  0.00     0.032 A 
ENDROOT
TORSDOF 0
