REMARK SMILES CCOC(=O)c1c[nH][nH]c1=O
REMARK SMILES IDX 3 1 2 2 1 3 4 4 5 5 6 6 7 7 10 8 8 9 9 10 11 11
REMARK H PARENT 8 12 9 13
ROOT
ATOM      1  O   UNL     1      -1.102  -0.601  -0.430  1.00  0.00    -0.462 OA
ENDROOT
BRANCH   1   2
ATOM      2  C   UNL     1      -2.499  -0.800  -0.225  1.00  0.00     0.230 C 
ATOM      3  C   UNL     1      -3.206   0.532  -0.003  1.00  0.00     0.049 C 
ENDBRANCH   1   2
BRANCH   1   4
ATOM      4  C   UNL     1      -0.206  -0.303   0.602  1.00  0.00     0.345 C 
ATOM      5  O   UNL     1      -0.600  -0.245   1.799  1.00  0.00    -0.246 OA
BRANCH   4   6
ATOM      6  C   UNL     1       1.208  -0.062   0.283  1.00  0.00     0.144 A 
ATOM      7  C   UNL     1       1.799  -0.088  -0.969  1.00  0.00     0.122 A 
ATOM      8  C   UNL     1       2.245   0.241   1.144  1.00  0.00     0.278 A 
ATOM      9  N   UNL     1       3.113   0.186  -0.831  1.00  0.00    -0.305 N 
ATOM     10  N   UNL     1       3.385   0.386   0.448  1.00  0.00    -0.266 N 
ATOM     11  O   UNL     1       2.162   0.368   2.394  1.00  0.00    -0.267 OA
ATOM     12  H   UNL     1       3.816   0.237  -1.601  1.00  0.00     0.187 HD
ATOM     13  H   UNL     1       4.329   0.616   0.830  1.00  0.00     0.191 HD
ENDBRANCH   4   6
ENDBRANCH   1   4
TORSDOF 3
