REMARK SMILES Cc1cc(NC(=O)c2ccccc2)nc(C)n1
REMARK SMILES IDX 1 1 2 2 3 3 4 4 14 5 15 6 16 7 17 8 5 9 6 10 7 12 8 13 9 14
REMARK SMILES IDX 13 15 10 16 12 17 11 18
REMARK H PARENT 5 11
ROOT
ATOM      1  C   UNL     1      -4.522   1.527   1.232  1.00  0.00     0.067 C 
ATOM      2  C   UNL     1      -3.482   0.650   0.610  1.00  0.00     0.043 A 
ATOM      3  C   UNL     1      -2.143   1.052   0.579  1.00  0.00     0.070 A 
ATOM      4  C   UNL     1      -1.196   0.196   0.005  1.00  0.00     0.136 A 
ATOM      5  N   UNL     1      -1.600  -1.004  -0.494  1.00  0.00    -0.216 NA
ATOM      6  C   UNL     1      -2.906  -1.378  -0.466  1.00  0.00     0.127 A 
ATOM      7  C   UNL     1      -3.311  -2.716  -0.988  1.00  0.00     0.090 C 
ATOM      8  N   UNL     1      -3.833  -0.559   0.097  1.00  0.00    -0.238 NA
ENDROOT
BRANCH   4   9
ATOM      9  N   UNL     1       0.191   0.576  -0.023  1.00  0.00    -0.306 N 
ATOM     10  C   UNL     1       1.208  -0.166  -0.720  1.00  0.00     0.256 C 
ATOM     11  H   UNL     1       0.465   1.462   0.458  1.00  0.00     0.171 HD
ATOM     12  O   UNL     1       0.881  -1.001  -1.607  1.00  0.00    -0.269 OA
BRANCH  10  13
ATOM     13  C   UNL     1       2.646   0.065  -0.438  1.00  0.00     0.040 A 
ATOM     14  C   UNL     1       3.068   0.595   0.796  1.00  0.00     0.014 A 
ATOM     15  C   UNL     1       3.617  -0.271  -1.400  1.00  0.00     0.014 A 
ATOM     16  C   UNL     1       4.428   0.801   1.051  1.00  0.00     0.001 A 
ATOM     17  C   UNL     1       4.975  -0.063  -1.140  1.00  0.00     0.001 A 
ATOM     18  C   UNL     1       5.380   0.474   0.083  1.00  0.00     0.000 A 
ENDBRANCH  10  13
ENDBRANCH   4   9
TORSDOF 2
