REMARK SMILES [SH2]=c1[nH]ccn1-c1ccccc1Cl
REMARK SMILES IDX 3 1 4 2 5 3 6 4 2 5 1 7 7 10 8 11 12 12 9 13 11 14 10 15
REMARK SMILES IDX 13 16
REMARK H PARENT 3 6 1 8 1 9
ROOT
ATOM      1  N   UNL     1      -2.995  -0.539  -0.124  1.00  0.00    -0.342 N 
ATOM      2  C   UNL     1      -2.571  -1.665  -0.728  1.00  0.00     0.103 A 
ATOM      3  C   UNL     1      -1.194  -1.623  -0.830  1.00  0.00     0.111 A 
ATOM      4  N   UNL     1      -0.766  -0.461  -0.301  1.00  0.00    -0.296 N 
ATOM      5  C   UNL     1      -1.880   0.172   0.131  1.00  0.00     0.134 A 
ATOM      6  H   UNL     1      -3.981  -0.290   0.114  1.00  0.00     0.168 HD
ENDROOT
BRANCH   5   7
ATOM      7  S   UNL     1      -1.882   1.575   0.934  1.00  0.00    -0.174 S 
ATOM      8  H   UNL     1      -3.204   1.756   1.333  1.00  0.00     0.096 HD
ATOM      9  H   UNL     1      -1.206   1.273   2.113  1.00  0.00     0.096 HD
ENDBRANCH   5   7
BRANCH   4  10
ATOM     10  C   UNL     1       0.602  -0.052  -0.160  1.00  0.00     0.066 A 
ATOM     11  C   UNL     1       1.459  -0.784   0.675  1.00  0.00     0.028 A 
ATOM     12  C   UNL     1       1.103   1.063  -0.862  1.00  0.00     0.065 A 
ATOM     13  C   UNL     1       2.792  -0.397   0.832  1.00  0.00     0.002 A 
ATOM     14  C   UNL     1       2.440   1.444  -0.700  1.00  0.00     0.023 A 
ATOM     15  C   UNL     1       3.282   0.718   0.147  1.00  0.00     0.002 A 
ATOM     16  Cl  UNL     1       0.093   1.962  -1.987  1.00  0.00    -0.082 Cl
ENDBRANCH   4  10
TORSDOF 2
