REMARK SMILES Cc1cc(C)cc(NCCC#N)c1
REMARK SMILES IDX 9 1 8 2 7 4 2 5 3 6 13 7 4 8 6 9 1 10 5 11 10 12 11 13 12 14
REMARK H PARENT 8 3
ROOT
ATOM      1  C   UNL     1       2.606  -0.397  -0.639  1.00  0.00     0.128 C 
ENDROOT
BRANCH   1   2
ATOM      2  N   UNL     1       1.548  -0.468   0.373  1.00  0.00    -0.384 N 
ATOM      3  H   UNL     1       1.806  -0.728   1.353  1.00  0.00     0.160 HD
BRANCH   2   4
ATOM      4  C   UNL     1       0.162  -0.202   0.088  1.00  0.00     0.035 A 
ATOM      5  C   UNL     1      -2.137  -0.024   0.887  1.00  0.00    -0.049 A 
ATOM      6  C   UNL     1      -2.556   0.332  -0.402  1.00  0.00     0.007 A 
ATOM      7  C   UNL     1      -0.778  -0.277   1.128  1.00  0.00     0.029 A 
ATOM      8  C   UNL     1      -1.634   0.391  -1.457  1.00  0.00    -0.049 A 
ATOM      9  C   UNL     1      -0.277   0.137  -1.207  1.00  0.00     0.029 A 
ATOM     10  C   UNL     1      -3.122  -0.058   2.018  1.00  0.00     0.044 C 
ATOM     11  C   UNL     1      -2.084   0.800  -2.829  1.00  0.00     0.044 C 
ENDBRANCH   2   4
ENDBRANCH   1   2
BRANCH   1  12
ATOM     12  C   UNL     1       3.980  -0.719  -0.044  1.00  0.00     0.141 C 
BRANCH  12  13
ATOM     13  C   UNL     1       4.399   0.313   0.913  1.00  0.00     0.064 C 
ATOM     14  N   UNL     1       4.728   1.126   1.668  1.00  0.00    -0.198 NA
ENDBRANCH  12  13
ENDBRANCH   1  12
TORSDOF 4
