REMARK SMILES c1ccc2c(c1)cnc1ccccc12
REMARK SMILES IDX 1 1 2 2 3 3 4 4 5 5 6 6 7 7 8 8 9 9 10 10 11 11 12 12 13 13
REMARK SMILES IDX 14 14
REMARK H PARENT
ROOT
ATOM      1  C   UNL     1      -3.485   0.134   0.124  1.00  0.00     0.001 A 
ATOM      2  C   UNL     1      -2.933  -1.119  -0.136  1.00  0.00     0.001 A 
ATOM      3  C   UNL     1      -1.547  -1.281  -0.206  1.00  0.00     0.009 A 
ATOM      4  C   UNL     1      -0.678  -0.179  -0.016  1.00  0.00    -0.007 A 
ATOM      5  C   UNL     1      -1.259   1.091   0.248  1.00  0.00     0.001 A 
ATOM      6  C   UNL     1      -2.654   1.236   0.316  1.00  0.00     0.010 A 
ATOM      7  C   UNL     1      -0.435   2.203   0.442  1.00  0.00     0.120 A 
ATOM      8  N   UNL     1       0.912   2.076   0.380  1.00  0.00    -0.256 NA
ATOM      9  C   UNL     1       1.516   0.887   0.130  1.00  0.00     0.071 A 
ATOM     10  C   UNL     1       2.914   0.835   0.081  1.00  0.00     0.029 A 
ATOM     11  C   UNL     1       3.564  -0.372  -0.173  1.00  0.00     0.002 A 
ATOM     12  C   UNL     1       2.822  -1.534  -0.379  1.00  0.00     0.001 A 
ATOM     13  C   UNL     1       1.425  -1.499  -0.333  1.00  0.00     0.011 A 
ATOM     14  C   UNL     1       0.742  -0.286  -0.077  1.00  0.00     0.008 A 
ENDROOT
TORSDOF 0
