REMARK SMILES Cc1cccc(C)c1NC(=O)Nc1ccc(S(N)(=O)=O)cc1
REMARK SMILES IDX 13 1 14 2 15 3 16 4 21 5 22 6 12 7 9 8 10 9 11 11 8 13 2 14
REMARK SMILES IDX 3 15 4 16 6 17 5 18 1 19 7 20 17 21 19 22 20 23 18 24
REMARK H PARENT 9 10 12 12 18 25 18 26
ROOT
ATOM      1  C   UNL     1       1.819  -0.773  -0.699  1.00  0.00     0.042 A 
ATOM      2  C   UNL     1       2.822  -1.747  -0.583  1.00  0.00     0.027 A 
ATOM      3  C   UNL     1       4.165  -1.374  -0.482  1.00  0.00     0.024 A 
ATOM      4  C   UNL     1       4.525  -0.020  -0.516  1.00  0.00     0.082 A 
ATOM      5  C   UNL     1       3.529   0.956  -0.648  1.00  0.00     0.024 A 
ATOM      6  C   UNL     1       2.185   0.584  -0.748  1.00  0.00     0.027 A 
ENDROOT
BRANCH   1   7
ATOM      7  N   UNL     1       0.447  -1.186  -0.823  1.00  0.00    -0.308 N 
ATOM      8  N   UNL     1      -2.000  -0.828  -0.662  1.00  0.00    -0.307 N 
ATOM      9  C   UNL     1      -0.667  -0.450  -0.296  1.00  0.00     0.323 C 
ATOM     10  H   UNL     1      -2.131  -1.498  -1.452  1.00  0.00     0.171 HD
ATOM     11  O   UNL     1      -0.479   0.509   0.502  1.00  0.00    -0.248 OA
ATOM     12  H   UNL     1       0.251  -2.122  -1.244  1.00  0.00     0.171 HD
BRANCH   8  13
ATOM     13  C   UNL     1      -3.157  -0.163  -0.131  1.00  0.00     0.048 A 
ATOM     14  C   UNL     1      -3.966   0.620  -0.984  1.00  0.00    -0.027 A 
ATOM     15  C   UNL     1      -5.098   1.268  -0.464  1.00  0.00     0.005 A 
ATOM     16  C   UNL     1      -5.419   1.153   0.888  1.00  0.00     0.001 A 
ATOM     17  C   UNL     1      -3.509  -0.308   1.232  1.00  0.00    -0.027 A 
ATOM     18  C   UNL     1      -4.629   0.374   1.733  1.00  0.00     0.005 A 
ATOM     19  C   UNL     1      -3.630   0.764  -2.443  1.00  0.00     0.046 C 
ATOM     20  C   UNL     1      -2.695  -1.161   2.168  1.00  0.00     0.046 C 
ENDBRANCH   8  13
ENDBRANCH   1   7
BRANCH   4  21
ATOM     21  S   UNL     1       6.214   0.454  -0.375  1.00  0.00     0.238 S 
ATOM     22  O   UNL     1       7.098  -0.643  -0.899  1.00  0.00    -0.207 OA
ATOM     23  O   UNL     1       6.461   1.698  -1.183  1.00  0.00    -0.207 OA
BRANCH  21  24
ATOM     24  N   UNL     1       6.590   0.753   1.285  1.00  0.00    -0.225 NA
ATOM     25  H   UNL     1       7.577   1.093   1.319  1.00  0.00     0.137 HD
ATOM     26  H   UNL     1       5.988   1.548   1.596  1.00  0.00     0.137 HD
ENDBRANCH  21  24
ENDBRANCH   4  21
TORSDOF 4
