REMARK SMILES O=C1CN=C(c2ccc[nH]2)c2cc(Cl)ccc2N1
REMARK SMILES IDX 11 1 12 2 13 3 14 4 15 5 16 6 17 7 18 8 2 9 1 10 5 13 4 14
REMARK SMILES IDX 3 15 6 17 7 18 10 19 8 20 9 21
REMARK H PARENT 18 11 10 22
REMARK Flexibility Score:   15.900
ROOT
ATOM      1  C   UNL     1      -0.613  -0.364  -0.143  1.00  0.00     0.027 A 
ATOM      2  C   UNL     1      -0.436  -1.699  -0.553  1.00  0.00     0.033 A 
ATOM      3  C   UNL     1      -1.410  -2.664  -0.291  1.00  0.00     0.041 A 
ATOM      4  Cl  UNL     1      -1.161  -4.324  -0.800  1.00  0.00    -0.084 Cl
ATOM      5  C   UNL     1      -2.577  -2.310   0.384  1.00  0.00     0.023 A 
ATOM      6  C   UNL     1      -2.782  -0.988   0.779  1.00  0.00     0.028 A 
ATOM      7  C   UNL     1      -1.825   0.001   0.502  1.00  0.00     0.050 A 
ENDROOT
BRANCH   7   8
ATOM      8  N   UNL     1      -2.108   1.352   0.903  1.00  0.00    -0.324 N 
ATOM      9  C   UNL     1      -1.824   2.489   0.080  1.00  0.00     0.246 CG0
ATOM     10  O   UNL     1      -2.235   3.628   0.426  1.00  0.00    -0.273 OA
ATOM     11  H   UNL     1      -2.728   1.503   1.732  1.00  0.00     0.170 HD
ATOM     12  G   UNL     1      -1.037   2.339  -1.181  1.00  0.00     0.000 G0
ENDBRANCH   7   8
BRANCH   1  13
ATOM     13  C   UNL     1       0.497   0.609  -0.376  1.00  0.00     0.091 C 
BRANCH  13  14
ATOM     14  N   UNL     1       0.275   1.798  -0.859  1.00  0.00    -0.273 NA
BRANCH  14  15
ATOM     15  C   UNL     1      -1.037   2.339  -1.181  1.00  0.00     0.243 CG0
ATOM     16  G   UNL     1      -1.824   2.489   0.080  1.00  0.00     0.000 G0
ENDBRANCH  14  15
ENDBRANCH  13  14
BRANCH  13  17
ATOM     17  C   UNL     1       1.898   0.238  -0.072  1.00  0.00     0.064 A 
ATOM     18  C   UNL     1       2.311  -0.791   0.759  1.00  0.00     0.030 A 
ATOM     19  N   UNL     1       2.970   0.909  -0.537  1.00  0.00    -0.360 N 
ATOM     20  C   UNL     1       3.690  -0.742   0.782  1.00  0.00     0.020 A 
ATOM     21  C   UNL     1       4.061   0.314  -0.025  1.00  0.00     0.083 A 
ATOM     22  H   UNL     1       2.965   1.737  -1.175  1.00  0.00     0.166 HD
ENDBRANCH  13  17
ENDBRANCH   1  13
TORSDOF 1
