REMARK SMILES COc1cc(NC(C)=O)c2ncccc2c1NC(C)=O
REMARK SMILES IDX 3 1 4 2 5 3 10 4 11 5 12 6 13 7 14 8 15 9 16 10 2 11 1 12
REMARK SMILES IDX 17 13 18 14 19 16 20 17 6 18 7 19 8 21 9 22
REMARK H PARENT 17 15 6 20
ROOT
ATOM      1  C   UNL     1      -0.739   0.731   0.828  1.00  0.00     0.145 A 
ATOM      2  C   UNL     1       0.579   1.180   0.632  1.00  0.00     0.077 A 
ATOM      3  C   UNL     1       1.490   0.436  -0.134  1.00  0.00     0.071 A 
ATOM      4  C   UNL     1       1.070  -0.768  -0.724  1.00  0.00     0.096 A 
ATOM      5  N   UNL     1       1.947  -1.505  -1.463  1.00  0.00    -0.254 NA
ATOM      6  C   UNL     1       1.600  -2.691  -2.025  1.00  0.00     0.112 A 
ATOM      7  C   UNL     1       0.316  -3.201  -1.844  1.00  0.00     0.021 A 
ATOM      8  C   UNL     1      -0.609  -2.478  -1.091  1.00  0.00     0.014 A 
ATOM      9  C   UNL     1      -0.252  -1.237  -0.530  1.00  0.00     0.030 A 
ATOM     10  C   UNL     1      -1.161  -0.470   0.235  1.00  0.00     0.093 A 
ENDROOT
BRANCH   1  11
ATOM     11  O   UNL     1      -1.665   1.461   1.591  1.00  0.00    -0.494 OA
ATOM     12  C   UNL     1      -1.382   2.692   2.249  1.00  0.00     0.278 C 
ENDBRANCH   1  11
BRANCH  10  13
ATOM     13  N   UNL     1      -2.519  -0.896   0.427  1.00  0.00    -0.323 N 
ATOM     14  C   UNL     1      -3.463  -0.943  -0.652  1.00  0.00     0.221 C 
ATOM     15  H   UNL     1      -2.877  -0.980   1.405  1.00  0.00     0.170 HD
ATOM     16  C   UNL     1      -4.880  -1.333  -0.386  1.00  0.00     0.114 C 
ATOM     17  O   UNL     1      -3.116  -0.614  -1.819  1.00  0.00    -0.275 OA
ENDBRANCH  10  13
BRANCH   3  18
ATOM     18  N   UNL     1       2.828   0.919  -0.354  1.00  0.00    -0.324 N 
ATOM     19  C   UNL     1       3.614   1.576   0.652  1.00  0.00     0.221 C 
ATOM     20  H   UNL     1       3.285   0.721  -1.273  1.00  0.00     0.169 HD
ATOM     21  C   UNL     1       4.923   2.195   0.286  1.00  0.00     0.114 C 
ATOM     22  O   UNL     1       3.249   1.570   1.859  1.00  0.00    -0.275 OA
ENDBRANCH   3  18
TORSDOF 3
