REMARK SMILES CC(=O)Oc1c(C)c(OC(C)=O)c2c(c1C(C)=O)O[C@@H]1C=C(O)C(C(C)=O)=C(O)[C@]21C
REMARK SMILES IDX 22 1 21 2 20 3 19 4 14 5 15 6 5 7 6 8 7 9 8 10 13 11 30 12
REMARK SMILES IDX 31 13 28 14 24 15 23 16 25 18 26 19 27 20 29 21 16 23 17 24
REMARK SMILES IDX 18 25 9 26 10 27 11 28 12 29 4 30 2 31 1 32 3 33
REMARK H PARENT 23 17 29 22
ROOT
ATOM      1  C   UNL     1       3.062  -2.229   0.223  1.00  0.00     0.129 C 
ATOM      2  C   UNL     1       2.100  -2.910  -0.395  1.00  0.00     0.065 C 
ATOM      3  C   UNL     1       1.199  -2.312  -1.435  1.00  0.00     0.218 C 
ATOM      4  O   UNL     1      -0.139  -2.552  -1.012  1.00  0.00    -0.483 OA
ATOM      5  C   UNL     1      -0.723  -1.386  -0.565  1.00  0.00     0.143 A 
ATOM      6  C   UNL     1      -1.955  -1.283   0.085  1.00  0.00     0.103 A 
ATOM      7  C   UNL     1      -2.405   0.012   0.451  1.00  0.00     0.152 A 
ATOM      8  C   UNL     1      -1.586   1.145   0.209  1.00  0.00     0.036 A 
ATOM      9  C   UNL     1      -2.093   2.517   0.577  1.00  0.00     0.052 C 
ATOM     10  C   UNL     1      -0.314   0.982  -0.399  1.00  0.00     0.145 A 
ATOM     11  C   UNL     1       0.080  -0.303  -0.800  1.00  0.00     0.056 A 
ATOM     12  C   UNL     1       1.298  -0.748  -1.578  1.00  0.00     0.098 C 
ATOM     13  C   UNL     1       1.098  -0.377  -3.065  1.00  0.00     0.030 C 
ATOM     14  C   UNL     1       2.603  -0.157  -1.032  1.00  0.00     0.121 C 
ATOM     15  C   UNL     1       3.372  -0.827  -0.150  1.00  0.00     0.097 C 
ENDROOT
BRANCH   1  16
ATOM     16  O   UNL     1       3.770  -2.879   1.237  1.00  0.00    -0.507 OA
ATOM     17  H   UNL     1       4.457  -2.411   1.813  1.00  0.00     0.293 HD
ENDBRANCH   1  16
BRANCH  15  18
ATOM     18  C   UNL     1       4.606  -0.203   0.383  1.00  0.00     0.166 C 
ATOM     19  C   UNL     1       4.580   1.143   1.039  1.00  0.00     0.094 C 
ATOM     20  O   UNL     1       5.707  -0.805   0.267  1.00  0.00    -0.294 OA
ENDBRANCH  15  18
BRANCH  14  21
ATOM     21  O   UNL     1       3.036   1.105  -1.457  1.00  0.00    -0.510 OA
ATOM     22  H   UNL     1       2.544   1.668  -2.136  1.00  0.00     0.293 HD
ENDBRANCH  14  21
BRANCH   6  23
ATOM     23  C   UNL     1      -2.714  -2.514   0.405  1.00  0.00     0.167 C 
ATOM     24  C   UNL     1      -3.356  -2.719   1.743  1.00  0.00     0.094 C 
ATOM     25  O   UNL     1      -2.802  -3.430  -0.456  1.00  0.00    -0.294 OA
ENDBRANCH   6  23
BRANCH  10  26
ATOM     26  O   UNL     1       0.533   2.070  -0.630  1.00  0.00    -0.426 OA
BRANCH  26  27
ATOM     27  C   UNL     1       1.059   2.863   0.396  1.00  0.00     0.308 C 
ATOM     28  C   UNL     1       1.874   4.062   0.051  1.00  0.00     0.139 C 
ATOM     29  O   UNL     1       0.912   2.536   1.605  1.00  0.00    -0.252 OA
ENDBRANCH  26  27
ENDBRANCH  10  26
BRANCH   7  30
ATOM     30  O   UNL     1      -3.662   0.199   1.039  1.00  0.00    -0.425 OA
BRANCH  30  31
ATOM     31  C   UNL     1      -4.862  -0.129   0.398  1.00  0.00     0.308 C 
ATOM     32  C   UNL     1      -6.150   0.019   1.132  1.00  0.00     0.139 C 
ATOM     33  O   UNL     1      -4.870  -0.493  -0.810  1.00  0.00    -0.252 OA
ENDBRANCH  30  31
ENDBRANCH   7  30
TORSDOF 8
