REMARK SMILES Nc1ccc2c(c1)nnn2-c1ccccc1
REMARK SMILES IDX 2 1 3 2 4 3 5 4 6 5 7 6 8 7 9 8 10 9 1 10 11 13 12 14 16 15
REMARK SMILES IDX 13 16 15 17 14 18
REMARK H PARENT 1 11 1 12
ROOT
ATOM      1  C   UNL     1      -3.479   0.076  -0.225  1.00  0.00     0.034 A 
ATOM      2  C   UNL     1      -2.551   1.114   0.053  1.00  0.00     0.028 A 
ATOM      3  C   UNL     1      -1.165   0.864   0.034  1.00  0.00     0.033 A 
ATOM      4  C   UNL     1      -0.751  -0.429  -0.287  1.00  0.00     0.095 A 
ATOM      5  C   UNL     1      -1.639  -1.431  -0.529  1.00  0.00     0.115 A 
ATOM      6  C   UNL     1      -3.015  -1.226  -0.514  1.00  0.00     0.058 A 
ATOM      7  N   UNL     1      -0.965  -2.579  -0.722  1.00  0.00    -0.130 NA
ATOM      8  N   UNL     1       0.324  -2.265  -0.597  1.00  0.00    -0.061 NA
ATOM      9  N   UNL     1       0.481  -0.970  -0.340  1.00  0.00    -0.213 N 
ENDROOT
BRANCH   1  10
ATOM     10  N   UNL     1      -4.883   0.344  -0.196  1.00  0.00    -0.399 N 
ATOM     11  H   UNL     1      -5.575  -0.412  -0.393  1.00  0.00     0.156 HD
ATOM     12  H   UNL     1      -5.239   1.301   0.022  1.00  0.00     0.156 HD
ENDBRANCH   1  10
BRANCH   9  13
ATOM     13  C   UNL     1       1.757  -0.336  -0.155  1.00  0.00     0.067 A 
ATOM     14  C   UNL     1       2.026   0.924  -0.717  1.00  0.00     0.028 A 
ATOM     15  C   UNL     1       2.772  -1.003   0.551  1.00  0.00     0.028 A 
ATOM     16  C   UNL     1       3.280   1.519  -0.546  1.00  0.00     0.002 A 
ATOM     17  C   UNL     1       4.024  -0.404   0.721  1.00  0.00     0.002 A 
ATOM     18  C   UNL     1       4.276   0.858   0.177  1.00  0.00     0.000 A 
ENDBRANCH   9  13
TORSDOF 2
