REMARK SMILES Cn1c(=O)c2c(nc(Cc3ccccc3)n2C)n(C)c1=O
REMARK SMILES IDX 1 1 2 2 3 3 4 4 5 5 6 6 7 7 8 8 16 9 17 10 18 11 19 12 20 13
REMARK SMILES IDX 21 14 9 15 10 16 11 17 15 18 12 19 14 20 13 21
REMARK H PARENT
ROOT
ATOM      1  C   UNL     1      -4.738   1.318   0.370  1.00  0.00     0.159 C 
ATOM      2  N   UNL     1      -3.524   0.486   0.302  1.00  0.00    -0.261 N 
ATOM      3  C   UNL     1      -2.482   0.859  -0.517  1.00  0.00     0.282 A 
ATOM      4  O   UNL     1      -2.534   1.921  -1.195  1.00  0.00    -0.267 OA
ATOM      5  C   UNL     1      -1.363   0.035  -0.577  1.00  0.00     0.152 A 
ATOM      6  C   UNL     1      -1.314  -1.102   0.156  1.00  0.00     0.168 A 
ATOM      7  N   UNL     1      -0.126  -1.716   0.009  1.00  0.00    -0.215 NA
ATOM      8  C   UNL     1       0.533  -0.903  -0.858  1.00  0.00     0.116 A 
ATOM      9  N   UNL     1      -0.203   0.177  -1.246  1.00  0.00    -0.325 N 
ATOM     10  C   UNL     1       0.214   1.302  -2.085  1.00  0.00     0.152 C 
ATOM     11  N   UNL     1      -2.347  -1.507   0.944  1.00  0.00    -0.279 N 
ATOM     12  C   UNL     1      -2.245  -2.733   1.747  1.00  0.00     0.157 C 
ATOM     13  C   UNL     1      -3.461  -0.699   1.017  1.00  0.00     0.332 A 
ATOM     14  O   UNL     1      -4.433  -1.044   1.747  1.00  0.00    -0.247 OA
ENDROOT
BRANCH   8  15
ATOM     15  C   UNL     1       1.964  -1.151  -1.243  1.00  0.00     0.111 C 
BRANCH  15  16
ATOM     16  C   UNL     1       2.886  -0.265  -0.448  1.00  0.00    -0.040 A 
ATOM     17  C   UNL     1       3.042  -0.470   0.934  1.00  0.00     0.004 A 
ATOM     18  C   UNL     1       3.590   0.780  -1.071  1.00  0.00     0.004 A 
ATOM     19  C   UNL     1       3.886   0.359   1.679  1.00  0.00     0.000 A 
ATOM     20  C   UNL     1       4.433   1.607  -0.322  1.00  0.00     0.000 A 
ATOM     21  C   UNL     1       4.580   1.397   1.052  1.00  0.00     0.000 A 
ENDBRANCH  15  16
ENDBRANCH   8  15
TORSDOF 2
