REMARK SMILES O=C(Nc1cccc([N+](=O)[O-])c1)c1cc2ccccc2cc1O
REMARK SMILES IDX 1 1 2 2 3 3 13 5 14 6 22 7 15 8 21 9 16 10 20 11 17 12 19 13
REMARK SMILES IDX 18 14 23 15 4 17 5 18 12 19 6 20 8 21 7 22 9 23 10 24 11 25
REMARK H PARENT 3 4 23 16
ROOT
ATOM      1  O   UNL     1       0.274   1.325  -1.491  1.00  0.00    -0.269 OA
ATOM      2  C   UNL     1       0.215   0.464  -0.572  1.00  0.00     0.259 C 
ATOM      3  N   UNL     1       1.421  -0.073   0.001  1.00  0.00    -0.322 N 
ATOM      4  H   UNL     1       1.343  -0.835   0.711  1.00  0.00     0.170 HD
ENDROOT
BRANCH   2   5
ATOM      5  C   UNL     1      -1.111   0.022  -0.090  1.00  0.00     0.082 A 
ATOM      6  C   UNL     1      -2.110   0.984   0.135  1.00  0.00     0.026 A 
ATOM      7  C   UNL     1      -1.402  -1.342   0.119  1.00  0.00     0.128 A 
ATOM      8  C   UNL     1      -3.376   0.603   0.601  1.00  0.00    -0.017 A 
ATOM      9  C   UNL     1      -2.666  -1.725   0.591  1.00  0.00     0.055 A 
ATOM     10  C   UNL     1      -4.370   1.565   0.840  1.00  0.00     0.009 A 
ATOM     11  C   UNL     1      -3.655  -0.764   0.836  1.00  0.00    -0.015 A 
ATOM     12  C   UNL     1      -5.628   1.174   1.308  1.00  0.00     0.001 A 
ATOM     13  C   UNL     1      -4.923  -1.144   1.305  1.00  0.00     0.009 A 
ATOM     14  C   UNL     1      -5.903  -0.176   1.540  1.00  0.00     0.001 A 
BRANCH   7  15
ATOM     15  O   UNL     1      -0.449  -2.320  -0.169  1.00  0.00    -0.507 OA
ATOM     16  H   UNL     1      -0.640  -3.305  -0.034  1.00  0.00     0.293 HD
ENDBRANCH   7  15
ENDBRANCH   2   5
BRANCH   3  17
ATOM     17  C   UNL     1       2.745   0.321  -0.396  1.00  0.00     0.048 A 
ATOM     18  C   UNL     1       3.060   1.664  -0.664  1.00  0.00     0.026 A 
ATOM     19  C   UNL     1       3.761  -0.645  -0.453  1.00  0.00     0.111 A 
ATOM     20  C   UNL     1       4.361   2.024  -1.022  1.00  0.00     0.009 A 
ATOM     21  C   UNL     1       5.074  -0.292  -0.814  1.00  0.00     0.271 A 
ATOM     22  C   UNL     1       5.362   1.054  -1.103  1.00  0.00     0.086 A 
BRANCH  21  23
ATOM     23  N   UNL     1       6.105  -1.295  -0.883  1.00  0.00     0.062 N 
ATOM     24  O   UNL     1       7.272  -0.987  -1.203  1.00  0.00    -0.258 OA
ATOM     25  O   UNL     1       5.821  -2.611  -0.600  1.00  0.00    -0.258 OA
ENDBRANCH  21  23
ENDBRANCH   3  17
TORSDOF 4
