REMARK SMILES Cc1cc2nc(CO)[nH]c2cc1C
REMARK SMILES IDX 7 1 6 2 2 3 3 4 12 5 4 6 11 7 5 8 10 9 9 10 1 11 13 12 8 14
REMARK H PARENT 9 13 8 15
ROOT
ATOM      1  C   UNL     1       4.127   0.199   0.163  1.00  0.00     0.231 C 
ENDROOT
BRANCH   1   2
ATOM      2  C   UNL     1       2.633   0.145   0.188  1.00  0.00     0.133 A 
ATOM      3  C   UNL     1      -1.740  -0.648   0.624  1.00  0.00    -0.046 A 
ATOM      4  C   UNL     1      -0.487  -1.073   1.127  1.00  0.00     0.034 A 
ATOM      5  C   UNL     1      -1.794   0.379  -0.372  1.00  0.00    -0.046 A 
ATOM      6  C   UNL     1       0.660  -0.466   0.631  1.00  0.00     0.089 A 
ATOM      7  C   UNL     1      -0.596   0.963  -0.845  1.00  0.00     0.032 A 
ATOM      8  N   UNL     1       1.937  -0.726   0.967  1.00  0.00    -0.231 NA
ATOM      9  C   UNL     1       0.606   0.510  -0.313  1.00  0.00     0.066 A 
ATOM     10  N   UNL     1       1.848   0.907  -0.612  1.00  0.00    -0.340 N 
ATOM     11  C   UNL     1      -2.996  -1.292   1.146  1.00  0.00     0.044 C 
ATOM     12  C   UNL     1      -3.110   0.852  -0.929  1.00  0.00     0.044 C 
ATOM     13  H   UNL     1       2.144   1.629  -1.307  1.00  0.00     0.168 HD
ENDBRANCH   1   2
BRANCH   1  14
ATOM     14  O   UNL     1       4.623  -0.696  -0.794  1.00  0.00    -0.388 OA
ATOM     15  H   UNL     1       4.478  -0.273  -1.681  1.00  0.00     0.211 HD
ENDBRANCH   1  14
TORSDOF 2
