REMARK SMILES CN(C)S(=O)(=O)N1C(=O)c2ccccc2C1=O
REMARK SMILES IDX 4 1 5 2 6 3 2 4 1 5 3 6 7 7 8 8 16 9 10 10 15 11 11 12 14 13
REMARK SMILES IDX 12 14 13 15 9 16 17 17
REMARK H PARENT
ROOT
ATOM      1  S   UNL     1      -1.809   1.407   1.073  1.00  0.00     0.313 S 
ATOM      2  O   UNL     1      -1.993   1.276   2.559  1.00  0.00    -0.188 OA
ATOM      3  O   UNL     1      -1.843   2.869   0.722  1.00  0.00    -0.188 OA
ENDROOT
BRANCH   1   4
ATOM      4  N   UNL     1      -3.101   0.575   0.246  1.00  0.00    -0.190 NA
ATOM      5  C   UNL     1      -3.082  -0.847   0.609  1.00  0.00     0.125 C 
ATOM      6  C   UNL     1      -2.935   0.726  -1.205  1.00  0.00     0.125 C 
ENDBRANCH   1   4
BRANCH   1   7
ATOM      7  N   UNL     1      -0.267   0.748   0.627  1.00  0.00    -0.153 N 
ATOM      8  C   UNL     1       0.572   1.160  -0.452  1.00  0.00     0.276 C 
ATOM      9  C   UNL     1       0.433  -0.323   1.259  1.00  0.00     0.276 C 
ATOM     10  C   UNL     1       1.777   0.338  -0.478  1.00  0.00     0.054 A 
ATOM     11  C   UNL     1       1.692  -0.566   0.563  1.00  0.00     0.054 A 
ATOM     12  C   UNL     1       2.873   0.358  -1.338  1.00  0.00     0.015 A 
ATOM     13  C   UNL     1       2.699  -1.498   0.803  1.00  0.00     0.015 A 
ATOM     14  C   UNL     1       3.903  -0.574  -1.116  1.00  0.00     0.001 A 
ATOM     15  C   UNL     1       3.817  -1.497  -0.051  1.00  0.00     0.001 A 
ATOM     16  O   UNL     1       0.297   2.092  -1.252  1.00  0.00    -0.267 OA
ATOM     17  O   UNL     1       0.011  -0.956   2.263  1.00  0.00    -0.267 OA
ENDBRANCH   1   7
TORSDOF 2
