REMARK SMILES N=c1nc(N)cc(Nc2ccc(Br)cc2)[nH]1
REMARK SMILES IDX 16 1 7 2 6 3 4 4 3 5 2 6 8 8 9 10 10 11 15 12 11 13 14 14
REMARK SMILES IDX 12 15 13 16 1 17 5 19
REMARK H PARENT 16 7 8 9 1 18 5 20 5 21
ROOT
ATOM      1  N   UNL     1      -1.874  -1.743  -0.395  1.00  0.00    -0.311 N 
ATOM      2  C   UNL     1      -0.942  -0.749  -0.434  1.00  0.00     0.114 A 
ATOM      3  C   UNL     1      -1.347   0.581  -0.247  1.00  0.00     0.091 A 
ATOM      4  C   UNL     1      -2.694   0.843   0.013  1.00  0.00     0.131 A 
ATOM      5  N   UNL     1      -3.581  -0.184   0.063  1.00  0.00    -0.196 NA
ATOM      6  C   UNL     1      -3.186  -1.467  -0.139  1.00  0.00     0.222 A 
ATOM      7  H   UNL     1      -1.571  -2.731  -0.553  1.00  0.00     0.171 HD
ENDROOT
BRANCH   2   8
ATOM      8  N   UNL     1       0.427  -1.073  -0.734  1.00  0.00    -0.342 N 
ATOM      9  H   UNL     1       0.605  -1.904  -1.343  1.00  0.00     0.168 HD
BRANCH   8  10
ATOM     10  C   UNL     1       1.564  -0.338  -0.250  1.00  0.00     0.040 A 
ATOM     11  C   UNL     1       1.548   0.286   1.011  1.00  0.00     0.027 A 
ATOM     12  C   UNL     1       2.736  -0.296  -1.020  1.00  0.00     0.027 A 
ATOM     13  C   UNL     1       2.676   0.972   1.472  1.00  0.00     0.018 A 
ATOM     14  C   UNL     1       3.862   0.391  -0.556  1.00  0.00     0.018 A 
ATOM     15  C   UNL     1       3.832   1.029   0.688  1.00  0.00     0.018 A 
ATOM     16  Br  UNL     1       5.372   1.965   1.320  1.00  0.00    -0.051 Br
ENDBRANCH   8  10
ENDBRANCH   2   8
BRANCH   6  17
ATOM     17  N   UNL     1      -4.063  -2.418  -0.089  1.00  0.00    -0.267 NA
ATOM     18  H   UNL     1      -3.806  -3.419  -0.239  1.00  0.00     0.191 HD
ENDBRANCH   6  17
BRANCH   4  19
ATOM     19  N   UNL     1      -3.146   2.182   0.218  1.00  0.00    -0.383 N 
ATOM     20  H   UNL     1      -4.154   2.373   0.408  1.00  0.00     0.158 HD
ATOM     21  H   UNL     1      -2.479   2.985   0.182  1.00  0.00     0.158 HD
ENDBRANCH   4  19
TORSDOF 4
