REMARK SMILES CC[C@@H](C)N=c1nc2n(C)c(=O)n(C)c(O)c-2n1C
REMARK SMILES IDX 5 1 6 2 15 3 17 4 13 5 18 6 8 7 11 8 7 9 9 10 14 11 19 12
REMARK SMILES IDX 12 13 10 14 16 15 3 17 4 18 2 19 1 20
REMARK H PARENT 16 16
ROOT
ATOM      1  N   UNL     1       1.997  -0.473  -0.436  1.00  0.00    -0.248 NA
ENDROOT
BRANCH   1   2
ATOM      2  C   UNL     1       0.732  -0.220  -0.269  1.00  0.00     0.227 A 
ATOM      3  C   UNL     1      -2.710  -0.888  -0.346  1.00  0.00     0.223 A 
ATOM      4  C   UNL     1      -1.388  -0.486  -0.275  1.00  0.00     0.148 A 
ATOM      5  N   UNL     1      -3.677  -0.015   0.115  1.00  0.00    -0.266 N 
ATOM      6  N   UNL     1      -0.245  -1.107  -0.610  1.00  0.00    -0.306 N 
ATOM      7  C   UNL     1      -1.062   0.775   0.262  1.00  0.00     0.170 A 
ATOM      8  C   UNL     1      -3.328   1.224   0.646  1.00  0.00     0.332 A 
ATOM      9  N   UNL     1       0.273   0.945   0.271  1.00  0.00    -0.193 NA
ATOM     10  N   UNL     1      -2.012   1.634   0.706  1.00  0.00    -0.279 N 
ATOM     11  C   UNL     1      -5.092  -0.420   0.049  1.00  0.00     0.158 C 
ATOM     12  C   UNL     1      -0.086  -2.443  -1.180  1.00  0.00     0.154 C 
ATOM     13  O   UNL     1      -4.228   1.994   1.087  1.00  0.00    -0.247 OA
ATOM     14  C   UNL     1      -1.640   2.926   1.298  1.00  0.00     0.157 C 
BRANCH   3  15
ATOM     15  O   UNL     1      -3.021  -2.147  -0.870  1.00  0.00    -0.493 OA
ATOM     16  H   UNL     1      -3.962  -2.508  -0.943  1.00  0.00     0.295 HD
ENDBRANCH   3  15
ENDBRANCH   1   2
BRANCH   1  17
ATOM     17  C   UNL     1       3.084   0.446  -0.089  1.00  0.00     0.106 C 
ATOM     18  C   UNL     1       3.193   1.549  -1.147  1.00  0.00     0.033 C 
BRANCH  17  19
ATOM     19  C   UNL     1       4.407  -0.334   0.001  1.00  0.00     0.023 C 
ATOM     20  C   UNL     1       4.388  -1.359   1.134  1.00  0.00     0.006 C 
ENDBRANCH  17  19
ENDBRANCH   1  17
TORSDOF 4
