REMARK SMILES O=C(Nc1ccc(Cl)cc1)c1cc2c(cc1O)[nH]c1ccccc12
REMARK SMILES IDX 11 1 12 2 13 3 14 4 15 5 16 6 18 7 19 8 20 9 21 10 22 11
REMARK SMILES IDX 23 12 24 13 2 15 3 16 1 17 4 19 5 20 10 21 6 22 9 23 7 24
REMARK SMILES IDX 8 25 17 26
REMARK H PARENT 18 14 3 18 17 27
ROOT
ATOM      1  C   UNL     1      -0.092   1.247   0.230  1.00  0.00     0.082 A 
ATOM      2  C   UNL     1       0.696   0.133  -0.143  1.00  0.00     0.028 A 
ATOM      3  C   UNL     1       2.080   0.260  -0.100  1.00  0.00     0.008 A 
ATOM      4  C   UNL     1       2.697   1.428   0.288  1.00  0.00     0.050 A 
ATOM      5  C   UNL     1       1.958   2.546   0.659  1.00  0.00     0.073 A 
ATOM      6  C   UNL     1       0.549   2.458   0.632  1.00  0.00     0.130 A 
ATOM      7  N   UNL     1       4.043   1.318   0.247  1.00  0.00    -0.354 N 
ATOM      8  C   UNL     1       4.272   0.056  -0.176  1.00  0.00     0.046 A 
ATOM      9  C   UNL     1       5.509  -0.552  -0.385  1.00  0.00     0.027 A 
ATOM     10  C   UNL     1       5.521  -1.886  -0.833  1.00  0.00     0.002 A 
ATOM     11  C   UNL     1       4.310  -2.578  -1.061  1.00  0.00     0.001 A 
ATOM     12  C   UNL     1       3.072  -1.945  -0.844  1.00  0.00     0.011 A 
ATOM     13  C   UNL     1       3.092  -0.624  -0.400  1.00  0.00     0.007 A 
ATOM     14  H   UNL     1       4.750   2.048   0.488  1.00  0.00     0.167 HD
ENDROOT
BRANCH   1  15
ATOM     15  C   UNL     1      -1.573   1.143   0.179  1.00  0.00     0.259 C 
ATOM     16  N   UNL     1      -2.219  -0.132   0.332  1.00  0.00    -0.322 N 
ATOM     17  O   UNL     1      -2.270   2.184   0.032  1.00  0.00    -0.269 OA
ATOM     18  H   UNL     1      -1.712  -0.878   0.860  1.00  0.00     0.170 HD
BRANCH  16  19
ATOM     19  C   UNL     1      -3.574  -0.397  -0.070  1.00  0.00     0.041 A 
ATOM     20  C   UNL     1      -4.148   0.245  -1.183  1.00  0.00     0.027 A 
ATOM     21  C   UNL     1      -4.324  -1.358   0.625  1.00  0.00     0.027 A 
ATOM     22  C   UNL     1      -5.460  -0.048  -1.568  1.00  0.00     0.022 A 
ATOM     23  C   UNL     1      -5.637  -1.649   0.239  1.00  0.00     0.022 A 
ATOM     24  C   UNL     1      -6.207  -0.991  -0.855  1.00  0.00     0.041 A 
ATOM     25  Cl  UNL     1      -7.852  -1.359  -1.341  1.00  0.00    -0.084 Cl
ENDBRANCH  16  19
ENDBRANCH   1  15
BRANCH   6  26
ATOM     26  O   UNL     1      -0.209   3.564   1.016  1.00  0.00    -0.507 OA
ATOM     27  H   UNL     1       0.225   4.431   1.309  1.00  0.00     0.293 HD
ENDBRANCH   6  26
TORSDOF 3
