REMARK SMILES CC(=O)Oc1c(C)c(OC(C)=O)c2c(c1C(C)=O)O[C@@H]1CC(=O)C(C(C)=O)=C(O)[C@]21C
REMARK SMILES IDX 5 1 6 2 7 3 8 4 13 5 14 6 15 7 19 8 20 9 21 10 22 11 23 12
REMARK SMILES IDX 24 13 28 14 30 15 31 16 4 17 2 18 1 19 3 20 16 21 17 22
REMARK SMILES IDX 18 23 9 24 10 25 11 26 12 27 29 28 25 30 26 31 27 32
REMARK H PARENT 29 29
ROOT
ATOM      1  C   UNL     1      -2.479  -0.179   0.406  1.00  0.00     0.152 A 
ATOM      2  C   UNL     1      -1.717   1.014   0.333  1.00  0.00     0.036 A 
ATOM      3  C   UNL     1      -2.391   2.335   0.604  1.00  0.00     0.052 C 
ATOM      4  C   UNL     1      -0.347   0.958  -0.039  1.00  0.00     0.145 A 
ATOM      5  C   UNL     1       0.261  -0.300  -0.185  1.00  0.00     0.055 A 
ATOM      6  C   UNL     1      -0.485  -1.448  -0.063  1.00  0.00     0.142 A 
ATOM      7  C   UNL     1      -1.850  -1.437   0.237  1.00  0.00     0.103 A 
ATOM      8  O   UNL     1       0.289  -2.576  -0.244  1.00  0.00    -0.487 OA
ATOM      9  C   UNL     1       1.665  -2.215  -0.272  1.00  0.00     0.199 C 
ATOM     10  C   UNL     1       2.227  -2.509   1.123  1.00  0.00     0.128 C 
ATOM     11  C   UNL     1       3.508  -1.796   1.347  1.00  0.00     0.173 C 
ATOM     12  O   UNL     1       4.436  -2.373   1.976  1.00  0.00    -0.294 OA
ATOM     13  C   UNL     1       3.663  -0.403   0.894  1.00  0.00     0.099 C 
ATOM     14  C   UNL     1       2.808   0.126  -0.011  1.00  0.00     0.121 C 
ATOM     15  C   UNL     1       1.658  -0.686  -0.642  1.00  0.00     0.095 C 
ATOM     16  C   UNL     1       1.721  -0.561  -2.182  1.00  0.00     0.029 C 
ENDROOT
BRANCH   1  17
ATOM     17  O   UNL     1      -3.858  -0.086   0.638  1.00  0.00    -0.425 OA
BRANCH  17  18
ATOM     18  C   UNL     1      -4.818  -0.531  -0.278  1.00  0.00     0.308 C 
ATOM     19  C   UNL     1      -6.262  -0.469   0.083  1.00  0.00     0.139 C 
ATOM     20  O   UNL     1      -4.478  -0.947  -1.419  1.00  0.00    -0.252 OA
ENDBRANCH  17  18
ENDBRANCH   1  17
BRANCH   7  21
ATOM     21  C   UNL     1      -2.564  -2.721   0.425  1.00  0.00     0.167 C 
ATOM     22  C   UNL     1      -3.522  -2.933   1.558  1.00  0.00     0.094 C 
ATOM     23  O   UNL     1      -2.344  -3.675  -0.368  1.00  0.00    -0.294 OA
ENDBRANCH   7  21
BRANCH   4  24
ATOM     24  O   UNL     1       0.394   2.124  -0.244  1.00  0.00    -0.426 OA
BRANCH  24  25
ATOM     25  C   UNL     1       0.072   3.077  -1.218  1.00  0.00     0.308 C 
ATOM     26  C   UNL     1       0.828   4.360  -1.267  1.00  0.00     0.139 C 
ATOM     27  O   UNL     1      -0.802   2.834  -2.095  1.00  0.00    -0.252 OA
ENDBRANCH  24  25
ENDBRANCH   4  24
BRANCH  14  28
ATOM     28  O   UNL     1       3.030   1.443  -0.422  1.00  0.00    -0.510 OA
ATOM     29  H   UNL     1       2.597   1.851  -1.238  1.00  0.00     0.293 HD
ENDBRANCH  14  28
BRANCH  13  30
ATOM     30  C   UNL     1       4.804   0.380   1.436  1.00  0.00     0.166 C 
ATOM     31  C   UNL     1       5.686   1.217   0.560  1.00  0.00     0.094 C 
ATOM     32  O   UNL     1       5.052   0.332   2.671  1.00  0.00    -0.294 OA
ENDBRANCH  13  30
TORSDOF 7
