REMARK SMILES O=[N+]([O-])c1cc2cccnc2c2ncccc12
REMARK SMILES IDX 1 1 2 2 3 3 4 4 5 5 17 6 6 7 16 8 12 9 7 10 11 11 15 12
REMARK SMILES IDX 13 13 8 14 10 15 14 16 9 17
REMARK H PARENT
ROOT
ATOM      1  O   UNL     1      -1.498  -3.583  -0.837  1.00  0.00    -0.258 OA
ATOM      2  N   UNL     1      -1.725  -2.610  -0.089  1.00  0.00     0.063 N 
ATOM      3  O   UNL     1      -2.669  -2.742   0.904  1.00  0.00    -0.258 OA
ENDROOT
BRANCH   2   4
ATOM      4  C   UNL     1      -0.836  -1.481  -0.089  1.00  0.00     0.279 A 
ATOM      5  C   UNL     1       0.546  -1.706  -0.192  1.00  0.00     0.096 A 
ATOM      6  C   UNL     1      -1.319  -0.154   0.037  1.00  0.00     0.080 A 
ATOM      7  C   UNL     1       1.452  -0.640  -0.133  1.00  0.00     0.009 A 
ATOM      8  C   UNL     1      -2.694   0.148   0.062  1.00  0.00     0.019 A 
ATOM      9  C   UNL     1      -0.398   0.924   0.105  1.00  0.00     0.103 A 
ATOM     10  C   UNL     1       2.834  -0.861  -0.220  1.00  0.00     0.012 A 
ATOM     11  C   UNL     1       0.980   0.680   0.024  1.00  0.00     0.097 A 
ATOM     12  C   UNL     1      -3.122   1.469   0.195  1.00  0.00     0.021 A 
ATOM     13  N   UNL     1      -0.855   2.201   0.233  1.00  0.00    -0.254 NA
ATOM     14  C   UNL     1       3.717   0.218  -0.151  1.00  0.00     0.021 A 
ATOM     15  N   UNL     1       1.868   1.711   0.086  1.00  0.00    -0.254 NA
ATOM     16  C   UNL     1      -2.180   2.491   0.287  1.00  0.00     0.112 A 
ATOM     17  C   UNL     1       3.210   1.510   0.003  1.00  0.00     0.112 A 
ENDBRANCH   2   4
TORSDOF 1
