REMARK SMILES Clc1ccc(-c2nc(-c3cc4cc(Cl)ccc4o3)cs2)cc1
REMARK SMILES IDX 6 1 7 2 8 3 19 4 20 5 5 6 2 7 3 8 22 9 4 10 21 11 1 12 9 13
REMARK SMILES IDX 10 14 18 15 11 16 17 17 12 18 16 19 13 20 15 21 14 22
REMARK H PARENT
ROOT
ATOM      1  C   UNL     1      -2.108   0.900   0.105  1.00  0.00     0.124 A 
ATOM      2  N   UNL     1      -0.915   0.263   0.117  1.00  0.00    -0.233 NA
ATOM      3  C   UNL     1       0.136   1.126   0.068  1.00  0.00     0.117 A 
ATOM      4  C   UNL     1      -0.211   2.475   0.016  1.00  0.00     0.099 A 
ATOM      5  S   UNL     1      -1.889   2.569   0.032  1.00  0.00    -0.122 S 
ENDROOT
BRANCH   1   6
ATOM      6  C   UNL     1      -3.410   0.196   0.151  1.00  0.00     0.011 A 
ATOM      7  C   UNL     1      -5.874  -1.160   0.238  1.00  0.00     0.041 A 
ATOM      8  C   UNL     1      -5.845   0.236   0.179  1.00  0.00     0.021 A 
ATOM      9  C   UNL     1      -4.678  -1.881   0.253  1.00  0.00     0.021 A 
ATOM     10  C   UNL     1      -4.622   0.913   0.136  1.00  0.00     0.013 A 
ATOM     11  C   UNL     1      -3.452  -1.209   0.210  1.00  0.00     0.013 A 
ATOM     12  Cl  UNL     1      -7.410  -2.005   0.292  1.00  0.00    -0.084 Cl
ENDBRANCH   1   6
BRANCH   3  13
ATOM     13  C   UNL     1       1.523   0.636   0.072  1.00  0.00     0.154 A 
ATOM     14  C   UNL     1       2.676   1.421   0.025  1.00  0.00     0.061 A 
ATOM     15  O   UNL     1       1.836  -0.647   0.122  1.00  0.00    -0.454 OA
ATOM     16  C   UNL     1       3.707   0.511   0.050  1.00  0.00     0.022 A 
ATOM     17  C   UNL     1       3.143  -0.735   0.109  1.00  0.00     0.135 A 
ATOM     18  C   UNL     1       5.087   0.696   0.025  1.00  0.00     0.032 A 
ATOM     19  C   UNL     1       3.921  -1.889   0.148  1.00  0.00     0.049 A 
ATOM     20  C   UNL     1       5.902  -0.452   0.064  1.00  0.00     0.041 A 
ATOM     21  C   UNL     1       5.320  -1.740   0.125  1.00  0.00     0.024 A 
ATOM     22  Cl  UNL     1       7.648  -0.283   0.035  1.00  0.00    -0.084 Cl
ENDBRANCH   3  13
TORSDOF 2
