REMARK SMILES COc1ccccc1NC(=O)Oc1cccc(OC(=O)c2ccccc2)c1
REMARK SMILES IDX 12 1 10 2 9 3 11 5 8 6 3 7 4 8 5 9 7 10 6 11 2 12 1 13 13 14
REMARK SMILES IDX 14 15 27 16 15 17 17 18 16 19 18 20 19 21 20 22 21 23 22 24
REMARK SMILES IDX 26 25 23 26 25 27 24 28
REMARK H PARENT 9 4
ROOT
ATOM      1  O   UNL     1       0.840   0.497  -0.378  1.00  0.00    -0.410 OA
ENDROOT
BRANCH   1   2
ATOM      2  C   UNL     1       2.158   0.132  -0.679  1.00  0.00     0.417 C 
ATOM      3  N   UNL     1       3.211   0.548   0.201  1.00  0.00    -0.287 N 
ATOM      4  H   UNL     1       2.931   0.934   1.130  1.00  0.00     0.173 HD
ATOM      5  O   UNL     1       2.407  -0.622  -1.659  1.00  0.00    -0.224 OA
BRANCH   3   6
ATOM      6  C   UNL     1       4.611   0.382  -0.086  1.00  0.00     0.086 A 
ATOM      7  C   UNL     1       5.511   0.100   0.962  1.00  0.00     0.142 A 
ATOM      8  C   UNL     1       6.885  -0.033   0.677  1.00  0.00     0.048 A 
ATOM      9  C   UNL     1       7.354   0.122  -0.629  1.00  0.00     0.004 A 
ATOM     10  C   UNL     1       5.102   0.554  -1.394  1.00  0.00     0.030 A 
ATOM     11  C   UNL     1       6.465   0.418  -1.661  1.00  0.00     0.002 A 
BRANCH   7  12
ATOM     12  O   UNL     1       5.007  -0.050   2.264  1.00  0.00    -0.495 OA
ATOM     13  C   UNL     1       5.801  -0.339   3.410  1.00  0.00     0.278 C 
ENDBRANCH   7  12
ENDBRANCH   3   6
ENDBRANCH   1   2
BRANCH   1  14
ATOM     14  C   UNL     1      -0.248   0.408  -1.259  1.00  0.00     0.136 A 
ATOM     15  C   UNL     1      -0.098   0.523  -2.653  1.00  0.00     0.047 A 
ATOM     16  C   UNL     1      -1.530   0.234  -0.721  1.00  0.00     0.094 A 
ATOM     17  C   UNL     1      -1.211   0.422  -3.491  1.00  0.00     0.008 A 
ATOM     18  C   UNL     1      -2.656   0.150  -1.561  1.00  0.00     0.134 A 
ATOM     19  C   UNL     1      -2.482   0.225  -2.947  1.00  0.00     0.047 A 
BRANCH  18  20
ATOM     20  O   UNL     1      -3.952  -0.047  -1.061  1.00  0.00    -0.423 OA
BRANCH  20  21
ATOM     21  C   UNL     1      -4.417   0.389   0.188  1.00  0.00     0.343 C 
ATOM     22  O   UNL     1      -3.786   1.275   0.829  1.00  0.00    -0.246 OA
BRANCH  21  23
ATOM     23  C   UNL     1      -5.684  -0.151   0.727  1.00  0.00     0.060 A 
ATOM     24  C   UNL     1      -6.407  -1.119   0.006  1.00  0.00     0.015 A 
ATOM     25  C   UNL     1      -6.185   0.291   1.966  1.00  0.00     0.015 A 
ATOM     26  C   UNL     1      -7.605  -1.632   0.514  1.00  0.00     0.001 A 
ATOM     27  C   UNL     1      -7.384  -0.225   2.469  1.00  0.00     0.001 A 
ATOM     28  C   UNL     1      -8.093  -1.185   1.744  1.00  0.00     0.000 A 
ENDBRANCH  21  23
ENDBRANCH  20  21
ENDBRANCH  18  20
ENDBRANCH   1  14
TORSDOF 7
