REMARK SMILES O=P(Oc1ccccc1)(Oc1ccccc1)c1ccccc1
REMARK SMILES IDX 1 1 2 2 3 3 4 4 5 5 9 6 6 7 8 8 7 9 10 10 11 11 12 12 16 13
REMARK SMILES IDX 13 14 15 15 14 16 17 17 18 18 22 19 19 20 21 21 20 22
REMARK H PARENT
ROOT
ATOM      1  O   UNL     1      -1.559  -0.318  -2.458  1.00  0.00    -0.229 OA
ATOM      2  P   UNL     1      -0.454  -0.197  -1.433  1.00  0.00     0.462 P 
ENDROOT
BRANCH   2   3
ATOM      3  O   UNL     1       1.051  -0.111  -2.267  1.00  0.00    -0.413 OA
BRANCH   3   4
ATOM      4  C   UNL     1       2.308  -0.020  -1.652  1.00  0.00     0.130 A 
ATOM      5  C   UNL     1       3.427   0.183  -2.471  1.00  0.00     0.047 A 
ATOM      6  C   UNL     1       2.492  -0.130  -0.258  1.00  0.00     0.047 A 
ATOM      7  C   UNL     1       4.706   0.285  -1.915  1.00  0.00     0.004 A 
ATOM      8  C   UNL     1       3.773  -0.027   0.294  1.00  0.00     0.004 A 
ATOM      9  C   UNL     1       4.879   0.182  -0.533  1.00  0.00     0.000 A 
ENDBRANCH   3   4
ENDBRANCH   2   3
BRANCH   2  10
ATOM     10  O   UNL     1      -0.467  -1.591  -0.419  1.00  0.00    -0.413 OA
BRANCH  10  11
ATOM     11  C   UNL     1      -1.566  -2.031   0.334  1.00  0.00     0.130 A 
ATOM     12  C   UNL     1      -1.408  -3.184   1.114  1.00  0.00     0.047 A 
ATOM     13  C   UNL     1      -2.809  -1.365   0.341  1.00  0.00     0.047 A 
ATOM     14  C   UNL     1      -2.466  -3.667   1.890  1.00  0.00     0.004 A 
ATOM     15  C   UNL     1      -3.864  -1.851   1.119  1.00  0.00     0.004 A 
ATOM     16  C   UNL     1      -3.693  -3.001   1.893  1.00  0.00     0.000 A 
ENDBRANCH  10  11
ENDBRANCH   2  10
BRANCH   2  17
ATOM     17  C   UNL     1      -0.686   1.315  -0.489  1.00  0.00     0.089 A 
ATOM     18  C   UNL     1      -0.863   2.531  -1.164  1.00  0.00     0.019 A 
ATOM     19  C   UNL     1      -0.660   1.300   0.914  1.00  0.00     0.019 A 
ATOM     20  C   UNL     1      -1.027   3.718  -0.443  1.00  0.00     0.001 A 
ATOM     21  C   UNL     1      -0.824   2.489   1.632  1.00  0.00     0.001 A 
ATOM     22  C   UNL     1      -1.008   3.697   0.954  1.00  0.00     0.000 A 
ENDBRANCH   2  17
TORSDOF 5
