REMARK SMILES CCN=c1nc(Cl)nc(-c2cn(-c3ccccc3)c3ccccc23)[nH]1
REMARK SMILES IDX 25 1 9 2 8 3 6 4 7 5 5 6 4 7 10 9 11 10 24 11 12 12 23 13
REMARK SMILES IDX 19 14 22 15 20 16 21 17 13 18 14 19 18 20 15 21 17 22 16 23
REMARK SMILES IDX 3 24 2 25 1 26
REMARK H PARENT 25 8
ROOT
ATOM      1  N   UNL     1       2.384   0.367   0.235  1.00  0.00    -0.308 N 
ATOM      2  C   UNL     1       1.256   0.984  -0.215  1.00  0.00     0.145 A 
ATOM      3  N   UNL     1       1.313   2.284  -0.605  1.00  0.00    -0.200 NA
ATOM      4  C   UNL     1       2.489   2.956  -0.577  1.00  0.00     0.227 A 
ATOM      5  Cl  UNL     1       2.554   4.627  -1.092  1.00  0.00    -0.041 Cl
ATOM      6  N   UNL     1       3.614   2.334  -0.149  1.00  0.00    -0.182 NA
ATOM      7  C   UNL     1       3.567   1.038   0.262  1.00  0.00     0.226 A 
ATOM      8  H   UNL     1       2.342  -0.612   0.599  1.00  0.00     0.171 HD
ENDROOT
BRANCH   2   9
ATOM      9  C   UNL     1      -0.040   0.281  -0.243  1.00  0.00     0.043 A 
ATOM     10  C   UNL     1      -1.278   0.861   0.008  1.00  0.00     0.104 A 
ATOM     11  C   UNL     1      -0.300  -1.047  -0.543  1.00  0.00     0.011 A 
ATOM     12  N   UNL     1      -2.263  -0.062  -0.094  1.00  0.00    -0.316 N 
ATOM     13  C   UNL     1       0.539  -2.077  -0.979  1.00  0.00     0.011 A 
ATOM     14  C   UNL     1      -1.661  -1.222  -0.439  1.00  0.00     0.054 A 
ATOM     15  C   UNL     1      -0.041  -3.321  -1.278  1.00  0.00     0.001 A 
ATOM     16  C   UNL     1      -2.263  -2.445  -0.759  1.00  0.00     0.027 A 
ATOM     17  C   UNL     1      -1.435  -3.504  -1.168  1.00  0.00     0.002 A 
BRANCH  12  18
ATOM     18  C   UNL     1      -3.664   0.183   0.122  1.00  0.00     0.046 A 
ATOM     19  C   UNL     1      -4.276   1.316  -0.440  1.00  0.00     0.026 A 
ATOM     20  C   UNL     1      -4.424  -0.677   0.932  1.00  0.00     0.026 A 
ATOM     21  C   UNL     1      -5.633   1.568  -0.217  1.00  0.00     0.002 A 
ATOM     22  C   UNL     1      -5.781  -0.421   1.154  1.00  0.00     0.002 A 
ATOM     23  C   UNL     1      -6.386   0.699   0.577  1.00  0.00     0.000 A 
ENDBRANCH  12  18
ENDBRANCH   2   9
BRANCH   7  24
ATOM     24  N   UNL     1       4.639   0.438   0.688  1.00  0.00    -0.251 NA
BRANCH  24  25
ATOM     25  C   UNL     1       5.955   1.066   0.762  1.00  0.00     0.143 C 
ATOM     26  C   UNL     1       6.969   0.070   1.304  1.00  0.00     0.029 C 
ENDBRANCH  24  25
ENDBRANCH   7  24
TORSDOF 4
