REMARK SMILES Nc1ccc(C(=O)Oc2ccc([N+](=O)[O-])cc2)cc1
REMARK SMILES IDX 6 1 7 2 5 3 2 4 3 5 19 6 4 7 18 8 1 9 8 12 9 13 10 14 17 15
REMARK SMILES IDX 11 16 16 17 12 18 13 19 14 20 15 21
REMARK H PARENT 1 10 1 11
ROOT
ATOM      1  C   UNL     1      -0.444  -0.739   0.255  1.00  0.00     0.343 C 
ATOM      2  O   UNL     1      -0.046  -1.735   0.920  1.00  0.00    -0.246 OA
ENDROOT
BRANCH   1   3
ATOM      3  C   UNL     1      -1.892  -0.466   0.127  1.00  0.00     0.060 A 
ATOM      4  C   UNL     1      -4.649   0.064  -0.118  1.00  0.00     0.031 A 
ATOM      5  C   UNL     1      -3.712   0.887  -0.756  1.00  0.00     0.026 A 
ATOM      6  C   UNL     1      -4.205  -1.025   0.643  1.00  0.00     0.026 A 
ATOM      7  C   UNL     1      -2.344   0.626  -0.635  1.00  0.00     0.018 A 
ATOM      8  C   UNL     1      -2.838  -1.289   0.766  1.00  0.00     0.018 A 
BRANCH   4   9
ATOM      9  N   UNL     1      -6.048   0.333  -0.244  1.00  0.00    -0.399 N 
ATOM     10  H   UNL     1      -6.388   1.142  -0.809  1.00  0.00     0.156 HD
ATOM     11  H   UNL     1      -6.754  -0.276   0.228  1.00  0.00     0.156 HD
ENDBRANCH   4   9
ENDBRANCH   1   3
BRANCH   1  12
ATOM     12  O   UNL     1       0.478   0.080  -0.413  1.00  0.00    -0.423 OA
BRANCH  12  13
ATOM     13  C   UNL     1       1.858   0.125  -0.162  1.00  0.00     0.131 A 
ATOM     14  C   UNL     1       2.401  -0.139   1.107  1.00  0.00     0.054 A 
ATOM     15  C   UNL     1       2.713   0.488  -1.208  1.00  0.00     0.054 A 
ATOM     16  C   UNL     1       3.782  -0.070   1.313  1.00  0.00     0.089 A 
ATOM     17  C   UNL     1       4.095   0.557  -1.005  1.00  0.00     0.089 A 
ATOM     18  C   UNL     1       4.645   0.274   0.259  1.00  0.00     0.269 A 
BRANCH  18  19
ATOM     19  N   UNL     1       6.066   0.343   0.473  1.00  0.00     0.062 N 
ATOM     20  O   UNL     1       6.837   0.652  -0.459  1.00  0.00    -0.258 OA
ATOM     21  O   UNL     1       6.601   0.067   1.711  1.00  0.00    -0.258 OA
ENDBRANCH  18  19
ENDBRANCH  12  13
ENDBRANCH   1  12
TORSDOF 5
