REMARK SMILES O=[N+]([O-])c1ccc(-c2ncc(-c3ccc(Br)cc3)o2)cc1
REMARK SMILES IDX 4 1 5 2 6 3 7 4 20 5 21 6 2 7 1 8 3 9 8 10 9 11 19 12 10 13
REMARK SMILES IDX 11 14 12 15 13 16 18 17 14 18 17 19 15 20 16 21
REMARK H PARENT
ROOT
ATOM      1  C   UNL     1      -4.674   0.661  -0.388  1.00  0.00     0.269 A 
ATOM      2  C   UNL     1      -3.610   1.507  -0.033  1.00  0.00     0.086 A 
ATOM      3  C   UNL     1      -2.293   1.038  -0.047  1.00  0.00     0.021 A 
ATOM      4  C   UNL     1      -2.014  -0.287  -0.415  1.00  0.00     0.038 A 
ATOM      5  C   UNL     1      -3.075  -1.136  -0.770  1.00  0.00     0.021 A 
ATOM      6  C   UNL     1      -4.392  -0.667  -0.757  1.00  0.00     0.086 A 
ENDROOT
BRANCH   1   7
ATOM      7  N   UNL     1      -6.028   1.148  -0.374  1.00  0.00     0.062 N 
ATOM      8  O   UNL     1      -6.978   0.400  -0.688  1.00  0.00    -0.258 OA
ATOM      9  O   UNL     1      -6.300   2.448  -0.012  1.00  0.00    -0.258 OA
ENDBRANCH   1   7
BRANCH   4  10
ATOM     10  C   UNL     1      -0.621  -0.777  -0.426  1.00  0.00     0.226 A 
ATOM     11  N   UNL     1      -0.268  -2.035  -0.768  1.00  0.00    -0.217 NA
ATOM     12  O   UNL     1       0.415  -0.034  -0.105  1.00  0.00    -0.436 OA
ATOM     13  C   UNL     1       1.072  -2.036  -0.639  1.00  0.00     0.163 A 
ATOM     14  C   UNL     1       1.483  -0.783  -0.226  1.00  0.00     0.155 A 
BRANCH  14  15
ATOM     15  C   UNL     1       2.861  -0.318   0.046  1.00  0.00     0.019 A 
ATOM     16  C   UNL     1       3.969  -1.175  -0.103  1.00  0.00     0.013 A 
ATOM     17  C   UNL     1       3.077   1.007   0.462  1.00  0.00     0.013 A 
ATOM     18  C   UNL     1       5.261  -0.712   0.160  1.00  0.00     0.016 A 
ATOM     19  C   UNL     1       4.372   1.466   0.723  1.00  0.00     0.016 A 
ATOM     20  C   UNL     1       5.464   0.608   0.573  1.00  0.00     0.018 A 
ATOM     21  Br  UNL     1       7.232   1.237   0.930  1.00  0.00    -0.051 Br
ENDBRANCH  14  15
ENDBRANCH   4  10
TORSDOF 3
