REMARK SMILES C=C(O)c1c(OC(C)=O)c(C)c(OC(C)=O)c2c1O[C@@H]1CC(=O)[C@H](C(C)=O)C(=O)[C@]21C
REMARK SMILES IDX 4 1 5 2 10 3 11 4 12 5 17 6 18 7 19 8 20 9 21 10 22 11 23 12
REMARK SMILES IDX 24 13 28 14 29 15 30 16 31 17 2 18 1 19 3 20 6 22 7 23 8 24
REMARK SMILES IDX 9 25 13 26 14 27 15 28 16 29 25 30 26 31 27 32
REMARK H PARENT 3 21
ROOT
ATOM      1  C   UNL     1       1.977   0.905   1.211  1.00  0.00     0.101 A 
ATOM      2  C   UNL     1       2.851   0.199   0.347  1.00  0.00     0.152 A 
ATOM      3  C   UNL     1       2.329  -0.716  -0.603  1.00  0.00     0.036 A 
ATOM      4  C   UNL     1       3.278  -1.495  -1.477  1.00  0.00     0.052 C 
ATOM      5  C   UNL     1       0.926  -0.859  -0.747  1.00  0.00     0.145 A 
ATOM      6  C   UNL     1       0.085  -0.186   0.153  1.00  0.00     0.055 A 
ATOM      7  C   UNL     1       0.601   0.680   1.078  1.00  0.00     0.142 A 
ATOM      8  O   UNL     1      -0.391   1.271   1.831  1.00  0.00    -0.487 OA
ATOM      9  C   UNL     1      -1.680   0.815   1.434  1.00  0.00     0.198 C 
ATOM     10  C   UNL     1      -2.384   0.204   2.653  1.00  0.00     0.123 C 
ATOM     11  C   UNL     1      -3.549  -0.623   2.204  1.00  0.00     0.154 C 
ATOM     12  O   UNL     1      -4.667  -0.406   2.649  1.00  0.00    -0.298 OA
ATOM     13  C   UNL     1      -3.329  -1.742   1.223  1.00  0.00     0.190 C 
ATOM     14  C   UNL     1      -1.992  -1.585   0.522  1.00  0.00     0.165 C 
ATOM     15  O   UNL     1      -1.438  -2.576   0.066  1.00  0.00    -0.297 OA
ATOM     16  C   UNL     1      -1.425  -0.192   0.242  1.00  0.00     0.097 C 
ATOM     17  C   UNL     1      -2.039   0.355  -1.059  1.00  0.00     0.029 C 
ENDROOT
BRANCH   1  18
ATOM     18  C   UNL     1       2.502   1.785   2.282  1.00  0.00     0.123 C 
ATOM     19  C   UNL     1       1.967   2.986   2.519  1.00  0.00     0.059 C 
BRANCH  18  20
ATOM     20  O   UNL     1       3.587   1.345   3.042  1.00  0.00    -0.508 OA
ATOM     21  H   UNL     1       3.992   1.912   3.779  1.00  0.00     0.293 HD
ENDBRANCH  18  20
ENDBRANCH   1  18
BRANCH   2  22
ATOM     22  O   UNL     1       4.239   0.386   0.414  1.00  0.00    -0.425 OA
BRANCH  22  23
ATOM     23  C   UNL     1       4.858   1.626   0.218  1.00  0.00     0.308 C 
ATOM     24  C   UNL     1       6.326   1.753   0.436  1.00  0.00     0.139 C 
ATOM     25  O   UNL     1       4.200   2.617  -0.202  1.00  0.00    -0.252 OA
ENDBRANCH  22  23
ENDBRANCH   2  22
BRANCH   5  26
ATOM     26  O   UNL     1       0.365  -1.661  -1.748  1.00  0.00    -0.426 OA
BRANCH  26  27
ATOM     27  C   UNL     1       0.558  -1.431  -3.115  1.00  0.00     0.308 C 
ATOM     28  C   UNL     1       0.011  -2.402  -4.104  1.00  0.00     0.139 C 
ATOM     29  O   UNL     1       1.126  -0.380  -3.519  1.00  0.00    -0.252 OA
ENDBRANCH  26  27
ENDBRANCH   5  26
BRANCH  13  30
ATOM     30  C   UNL     1      -3.423  -3.067   1.943  1.00  0.00     0.147 C 
ATOM     31  C   UNL     1      -4.488  -4.054   1.571  1.00  0.00     0.089 C 
ATOM     32  O   UNL     1      -2.625  -3.343   2.828  1.00  0.00    -0.299 OA
ENDBRANCH  13  30
TORSDOF 7
