REMARK SMILES CCCNc1cc(S)nc(=N)[nH]1
REMARK SMILES IDX 4 1 5 3 12 4 10 5 6 6 9 7 7 8 11 10 8 12 3 14 2 15 1 16
REMARK H PARENT 4 2 12 9 11 11 8 13
ROOT
ATOM      1  N   UNL     1      -0.240  -0.815  -0.148  1.00  0.00    -0.371 N 
ATOM      2  H   UNL     1      -0.252  -1.855  -0.259  1.00  0.00     0.162 HD
ENDROOT
BRANCH   1   3
ATOM      3  C   UNL     1       1.024  -0.175   0.112  1.00  0.00     0.108 A 
ATOM      4  N   UNL     1       1.119   1.180   0.269  1.00  0.00    -0.311 N 
ATOM      5  C   UNL     1       2.323   1.774   0.515  1.00  0.00     0.221 A 
ATOM      6  C   UNL     1       2.180  -0.958   0.207  1.00  0.00     0.080 A 
ATOM      7  N   UNL     1       3.447   1.017   0.607  1.00  0.00    -0.207 NA
ATOM      8  C   UNL     1       3.399  -0.330   0.458  1.00  0.00     0.101 A 
ATOM      9  H   UNL     1       0.266   1.779   0.201  1.00  0.00     0.171 HD
BRANCH   5  10
ATOM     10  N   UNL     1       2.409   3.058   0.663  1.00  0.00    -0.267 NA
ATOM     11  H   UNL     1       1.574   3.682   0.600  1.00  0.00     0.191 HD
ENDBRANCH   5  10
BRANCH   8  12
ATOM     12  S   UNL     1       4.901  -1.291   0.587  1.00  0.00    -0.124 SA
ATOM     13  H   UNL     1       5.156  -1.174  -0.792  1.00  0.00     0.109 HD
ENDBRANCH   8  12
ENDBRANCH   1   3
BRANCH   1  14
ATOM     14  C   UNL     1      -1.500  -0.078  -0.264  1.00  0.00     0.114 C 
BRANCH  14  15
ATOM     15  C   UNL     1      -2.667  -1.030  -0.542  1.00  0.00     0.018 C 
ATOM     16  C   UNL     1      -3.984  -0.270  -0.664  1.00  0.00     0.006 C 
ENDBRANCH  14  15
ENDBRANCH   1  14
TORSDOF 5
