REMARK SMILES Cc1c2cnccc2c(C)c2c1c1ccccc1n2CCOC(=O)c1ccccc1
REMARK SMILES IDX 21 1 20 2 19 3 2 4 3 5 12 6 4 7 8 8 11 9 13 10 5 11 7 12
REMARK SMILES IDX 9 13 14 14 18 15 6 16 15 17 17 18 16 19 1 20 10 21 22 22
REMARK SMILES IDX 23 23 24 24 25 25 26 26 30 27 27 28 29 29 28 30
REMARK H PARENT
ROOT
ATOM      1  C   UNL     1       1.389  -0.418  -1.408  1.00  0.00     0.255 C 
ENDROOT
BRANCH   1   2
ATOM      2  C   UNL     1       0.632   0.596  -0.539  1.00  0.00     0.164 C 
BRANCH   2   3
ATOM      3  N   UNL     1      -0.812   0.312  -0.535  1.00  0.00    -0.337 N 
ATOM      4  C   UNL     1      -3.991  -0.400   1.001  1.00  0.00    -0.032 A 
ATOM      5  C   UNL     1      -3.640  -1.017   2.234  1.00  0.00     0.004 A 
ATOM      6  C   UNL     1      -2.949  -0.089   0.107  1.00  0.00     0.011 A 
ATOM      7  C   UNL     1      -4.625  -1.487   3.134  1.00  0.00     0.120 A 
ATOM      8  C   UNL     1      -2.264  -1.187   2.590  1.00  0.00    -0.010 A 
ATOM      9  C   UNL     1      -1.605  -0.223   0.448  1.00  0.00     0.053 A 
ATOM     10  C   UNL     1      -2.973   0.448  -1.177  1.00  0.00     0.008 A 
ATOM     11  N   UNL     1      -4.276  -1.996   4.341  1.00  0.00    -0.264 NA
ATOM     12  C   UNL     1      -1.964  -1.682   3.880  1.00  0.00     0.029 A 
ATOM     13  C   UNL     1      -1.229  -0.854   1.663  1.00  0.00    -0.019 A 
ATOM     14  C   UNL     1      -4.014   0.685  -2.087  1.00  0.00     0.011 A 
ATOM     15  C   UNL     1      -1.662   0.698  -1.517  1.00  0.00     0.049 A 
ATOM     16  C   UNL     1      -2.985  -2.080   4.736  1.00  0.00     0.111 A 
ATOM     17  C   UNL     1      -3.698   1.258  -3.329  1.00  0.00     0.001 A 
ATOM     18  C   UNL     1      -1.331   1.284  -2.748  1.00  0.00     0.027 A 
ATOM     19  C   UNL     1      -2.365   1.568  -3.653  1.00  0.00     0.002 A 
ATOM     20  C   UNL     1      -5.411   0.026   0.702  1.00  0.00     0.046 C 
ATOM     21  C   UNL     1       0.195  -1.286   1.939  1.00  0.00     0.047 C 
ENDBRANCH   2   3
ENDBRANCH   1   2
BRANCH   1  22
ATOM     22  O   UNL     1       2.786  -0.369  -1.130  1.00  0.00    -0.460 OA
BRANCH  22  23
ATOM     23  C   UNL     1       3.622   0.671  -1.555  1.00  0.00     0.338 C 
ATOM     24  O   UNL     1       3.162   1.598  -2.278  1.00  0.00    -0.246 OA
BRANCH  23  25
ATOM     25  C   UNL     1       5.048   0.677  -1.160  1.00  0.00     0.060 A 
ATOM     26  C   UNL     1       5.908   1.706  -1.587  1.00  0.00     0.015 A 
ATOM     27  C   UNL     1       5.563  -0.349  -0.347  1.00  0.00     0.015 A 
ATOM     28  C   UNL     1       7.254   1.705  -1.208  1.00  0.00     0.001 A 
ATOM     29  C   UNL     1       6.910  -0.345   0.029  1.00  0.00     0.001 A 
ATOM     30  C   UNL     1       7.755   0.681  -0.401  1.00  0.00     0.000 A 
ENDBRANCH  23  25
ENDBRANCH  22  23
ENDBRANCH   1  22
TORSDOF 5
