REMARK SMILES Cn1ncc2c(Nc3ccc(O)cc3)nc(Cl)nc21
REMARK SMILES IDX 8 1 9 2 10 3 11 4 13 5 14 6 7 7 6 9 2 10 3 11 19 12 4 13
REMARK SMILES IDX 18 14 5 15 16 16 15 17 1 18 17 19 12 20
REMARK H PARENT 7 8 12 21
ROOT
ATOM      1  C   UNL     1       1.974   0.182   0.004  1.00  0.00     0.040 A 
ATOM      2  C   UNL     1       2.138  -1.194   0.249  1.00  0.00     0.030 A 
ATOM      3  C   UNL     1       3.394  -1.791   0.110  1.00  0.00     0.048 A 
ATOM      4  C   UNL     1       4.502  -1.022  -0.260  1.00  0.00     0.115 A 
ATOM      5  C   UNL     1       4.350   0.353  -0.483  1.00  0.00     0.048 A 
ATOM      6  C   UNL     1       3.094   0.952  -0.344  1.00  0.00     0.030 A 
ENDROOT
BRANCH   1   7
ATOM      7  N   UNL     1       0.698   0.825   0.164  1.00  0.00    -0.339 N 
ATOM      8  H   UNL     1       0.691   1.830   0.451  1.00  0.00     0.168 HD
BRANCH   7   9
ATOM      9  C   UNL     1      -0.557   0.205  -0.161  1.00  0.00     0.146 A 
ATOM     10  N   UNL     1      -3.966   0.868   0.400  1.00  0.00    -0.250 N 
ATOM     11  N   UNL     1      -3.478   1.913   1.061  1.00  0.00    -0.179 NA
ATOM     12  C   UNL     1      -2.937   0.169  -0.102  1.00  0.00     0.164 A 
ATOM     13  C   UNL     1      -2.122   1.865   0.992  1.00  0.00     0.149 A 
ATOM     14  N   UNL     1      -2.991  -0.951  -0.862  1.00  0.00    -0.198 NA
ATOM     15  C   UNL     1      -1.766   0.756   0.249  1.00  0.00     0.082 A 
ATOM     16  C   UNL     1      -1.811  -1.500  -1.279  1.00  0.00     0.226 A 
ATOM     17  N   UNL     1      -0.615  -0.923  -0.934  1.00  0.00    -0.200 NA
ATOM     18  C   UNL     1      -5.385   0.608   0.199  1.00  0.00     0.176 C 
ATOM     19  Cl  UNL     1      -1.825  -2.946  -2.264  1.00  0.00    -0.041 Cl
ENDBRANCH   7   9
ENDBRANCH   1   7
BRANCH   4  20
ATOM     20  O   UNL     1       5.748  -1.631  -0.397  1.00  0.00    -0.508 OA
ATOM     21  H   UNL     1       6.570  -1.101  -0.661  1.00  0.00     0.293 HD
ENDBRANCH   4  20
TORSDOF 3
