REMARK SMILES O=C([O-])CC[C@]1(c2ccccc2)NC(=O)NC1=O
REMARK SMILES IDX 4 1 2 2 1 3 3 4 5 5 6 6 13 7 17 8 14 9 16 10 18 12 15 13
REMARK SMILES IDX 7 15 8 16 12 17 9 18 11 19 10 20
REMARK H PARENT 13 11 16 14
ROOT
ATOM      1  C   UNL     1       1.774   1.300  -0.754  1.00  0.00     0.056 C 
ENDROOT
BRANCH   1   2
ATOM      2  C   UNL     1       2.811   2.338  -0.462  1.00  0.00     0.042 C 
ATOM      3  O   UNL     1       2.470   3.468  -0.022  1.00  0.00    -0.550 OA
ATOM      4  O   UNL     1       4.158   2.042  -0.628  1.00  0.00    -0.550 OA
ENDBRANCH   1   2
BRANCH   1   5
ATOM      5  C   UNL     1       1.506   0.447   0.498  1.00  0.00     0.050 C 
BRANCH   5   6
ATOM      6  C   UNL     1       0.426  -0.651   0.298  1.00  0.00     0.146 C 
ATOM      7  N   UNL     1       0.160  -1.295   1.590  1.00  0.00    -0.319 N 
ATOM      8  C   UNL     1       0.984  -1.815  -0.507  1.00  0.00     0.258 C 
ATOM      9  C   UNL     1       0.503  -2.669   1.496  1.00  0.00     0.322 C 
ATOM     10  N   UNL     1       1.001  -3.030   0.227  1.00  0.00    -0.276 N 
ATOM     11  H   UNL     1      -0.190  -0.824   2.454  1.00  0.00     0.166 HD
ATOM     12  O   UNL     1       1.435  -1.732  -1.680  1.00  0.00    -0.271 OA
ATOM     13  O   UNL     1       0.385  -3.480   2.451  1.00  0.00    -0.248 OA
ATOM     14  H   UNL     1       1.357  -3.962  -0.082  1.00  0.00     0.174 HD
BRANCH   6  15
ATOM     15  C   UNL     1      -0.890  -0.080  -0.243  1.00  0.00    -0.013 A 
ATOM     16  C   UNL     1      -1.447  -0.480  -1.480  1.00  0.00     0.007 A 
ATOM     17  C   UNL     1      -1.580   0.889   0.515  1.00  0.00     0.007 A 
ATOM     18  C   UNL     1      -2.646   0.078  -1.935  1.00  0.00     0.000 A 
ATOM     19  C   UNL     1      -2.777   1.443   0.053  1.00  0.00     0.000 A 
ATOM     20  C   UNL     1      -3.309   1.038  -1.172  1.00  0.00     0.000 A 
ENDBRANCH   6  15
ENDBRANCH   5   6
ENDBRANCH   1   5
TORSDOF 4
