REMARK SMILES N=c1nc(Nc2ccc(Br)cc2)[nH]cc1N
REMARK SMILES IDX 13 1 14 2 15 3 2 4 3 5 4 6 5 8 6 10 7 11 12 12 8 13 11 14
REMARK SMILES IDX 9 15 10 16 16 17 1 20
REMARK H PARENT 13 7 5 9 16 18 16 19 1 21
ROOT
ATOM      1  N   UNL     1      -1.529   1.816   0.728  1.00  0.00    -0.330 N 
ATOM      2  C   UNL     1      -2.811   1.746   0.281  1.00  0.00     0.115 A 
ATOM      3  C   UNL     1      -3.240   0.640  -0.459  1.00  0.00     0.093 A 
ATOM      4  C   UNL     1      -2.313  -0.382  -0.717  1.00  0.00     0.173 A 
ATOM      5  N   UNL     1      -1.042  -0.268  -0.250  1.00  0.00    -0.193 NA
ATOM      6  C   UNL     1      -0.638   0.822   0.458  1.00  0.00     0.206 A 
ATOM      7  H   UNL     1      -1.230   2.650   1.281  1.00  0.00     0.169 HD
ENDROOT
BRANCH   6   8
ATOM      8  N   UNL     1       0.703   0.906   0.966  1.00  0.00    -0.326 N 
ATOM      9  H   UNL     1       0.885   1.573   1.750  1.00  0.00     0.170 HD
BRANCH   8  10
ATOM     10  C   UNL     1       1.781   0.055   0.542  1.00  0.00     0.041 A 
ATOM     11  C   UNL     1       2.768  -0.320   1.466  1.00  0.00     0.027 A 
ATOM     12  C   UNL     1       1.903  -0.362  -0.797  1.00  0.00     0.027 A 
ATOM     13  C   UNL     1       3.838  -1.129   1.072  1.00  0.00     0.018 A 
ATOM     14  C   UNL     1       2.975  -1.170  -1.189  1.00  0.00     0.018 A 
ATOM     15  C   UNL     1       3.940  -1.559  -0.255  1.00  0.00     0.018 A 
ATOM     16  Br  UNL     1       5.403  -2.662  -0.793  1.00  0.00    -0.051 Br
ENDBRANCH   8  10
ENDBRANCH   6   8
BRANCH   3  17
ATOM     17  N   UNL     1      -4.592   0.569  -0.929  1.00  0.00    -0.394 N 
ATOM     18  H   UNL     1      -5.267   1.340  -0.726  1.00  0.00     0.156 HD
ATOM     19  H   UNL     1      -4.935  -0.247  -1.483  1.00  0.00     0.156 HD
ENDBRANCH   3  17
BRANCH   4  20
ATOM     20  N   UNL     1      -2.657  -1.431  -1.393  1.00  0.00    -0.281 NA
ATOM     21  H   UNL     1      -1.978  -2.200  -1.592  1.00  0.00     0.190 HD
ENDBRANCH   4  20
TORSDOF 4
