REMARK SMILES CC[C@]12CCC[N@H+]3CCc4c(n(c5ccccc45)[C@@](O)(C(=O)OC)C1)[C@@H]32
REMARK SMILES IDX 6 1 7 2 8 3 26 4 5 5 4 6 3 7 25 8 19 9 12 10 11 11 13 12
REMARK SMILES IDX 10 13 14 14 18 15 9 16 15 17 17 18 16 19 2 21 1 22 20 23
REMARK SMILES IDX 21 25 22 26 23 27 24 28
REMARK H PARENT 7 20 20 24
ROOT
ATOM      1  C   UNL     1      -3.287   0.152  -1.560  1.00  0.00     0.262 C 
ATOM      2  N   UNL     1      -2.186   0.933  -0.972  1.00  0.00    -0.327 N 
ATOM      3  C   UNL     1      -2.735   2.187  -0.374  1.00  0.00     0.267 C 
ATOM      4  C   UNL     1      -1.458   0.167   0.078  1.00  0.00     0.238 C 
ATOM      5  C   UNL     1      -2.752  -1.119  -2.207  1.00  0.00     0.062 C 
ATOM      6  C   UNL     1      -2.121  -2.008  -1.141  1.00  0.00     0.019 C 
ATOM      7  C   UNL     1      -1.014  -1.297  -0.303  1.00  0.00     0.033 C 
ATOM      8  C   UNL     1       0.319  -1.248  -1.117  1.00  0.00     0.085 C 
ATOM      9  C   UNL     1       1.511  -0.514  -0.415  1.00  0.00     0.243 C 
ATOM     10  N   UNL     1       1.018   0.670   0.318  1.00  0.00    -0.301 N 
ATOM     11  C   UNL     1      -0.285   1.002   0.489  1.00  0.00     0.084 A 
ATOM     12  C   UNL     1       1.708   1.802   0.597  1.00  0.00     0.052 A 
ATOM     13  C   UNL     1      -0.435   2.357   0.706  1.00  0.00    -0.007 A 
ATOM     14  C   UNL     1       3.092   2.006   0.541  1.00  0.00     0.027 A 
ATOM     15  C   UNL     1       0.847   2.852   0.822  1.00  0.00     0.004 A 
ATOM     16  C   UNL     1      -1.639   3.117   0.223  1.00  0.00     0.099 C 
ATOM     17  C   UNL     1       3.580   3.312   0.725  1.00  0.00     0.002 A 
ATOM     18  C   UNL     1       1.301   4.163   0.957  1.00  0.00     0.010 A 
ATOM     19  C   UNL     1       2.688   4.386   0.925  1.00  0.00     0.001 A 
ATOM     20  H   UNL     1      -1.526   1.198  -1.744  1.00  0.00     0.348 HD
ENDROOT
BRANCH   7  21
ATOM     21  C   UNL     1      -0.838  -2.107   1.030  1.00  0.00     0.010 C 
ATOM     22  C   UNL     1      -0.451  -3.583   0.867  1.00  0.00     0.005 C 
ENDBRANCH   7  21
BRANCH   9  23
ATOM     23  O   UNL     1       2.401  -0.078  -1.419  1.00  0.00    -0.361 OA
ATOM     24  H   UNL     1       2.696  -0.870  -1.942  1.00  0.00     0.214 HD
ENDBRANCH   9  23
BRANCH   9  25
ATOM     25  C   UNL     1       2.267  -1.431   0.525  1.00  0.00     0.359 C 
ATOM     26  O   UNL     1       2.417  -1.121   1.740  1.00  0.00    -0.246 OA
BRANCH  25  27
ATOM     27  O   UNL     1       2.839  -2.606   0.025  1.00  0.00    -0.465 OA
ATOM     28  C   UNL     1       3.560  -3.516   0.846  1.00  0.00     0.282 C 
ENDBRANCH  25  27
ENDBRANCH   9  25
TORSDOF 4
