REMARK SMILES CC[C@@H]([NH3+])Cc1c[nH]c2ccccc12
REMARK SMILES IDX 3 1 4 2 2 6 1 7 5 8 6 9 7 10 14 11 8 12 13 13 9 14 12 15
REMARK SMILES IDX 10 16 11 17
REMARK H PARENT 4 3 4 4 4 5 8 18
ROOT
ATOM      1  C   UNL     1      -2.116   0.808  -0.366  1.00  0.00     0.185 C 
ENDROOT
BRANCH   1   2
ATOM      2  N   UNL     1      -3.097   1.897  -0.479  1.00  0.00    -0.355 N 
ATOM      3  H   UNL     1      -4.068   1.508  -0.486  1.00  0.00     0.344 HD
ATOM      4  H   UNL     1      -2.957   2.416  -1.376  1.00  0.00     0.344 HD
ATOM      5  H   UNL     1      -2.999   2.562   0.323  1.00  0.00     0.344 HD
ENDBRANCH   1   2
BRANCH   1   6
ATOM      6  C   UNL     1      -2.384   0.005   0.933  1.00  0.00     0.062 C 
ATOM      7  C   UNL     1      -1.688  -1.356   0.970  1.00  0.00     0.010 C 
ENDBRANCH   1   6
BRANCH   1   8
ATOM      8  C   UNL     1      -0.682   1.399  -0.415  1.00  0.00     0.102 C 
BRANCH   8   9
ATOM      9  C   UNL     1       0.362   0.380  -0.779  1.00  0.00    -0.017 A 
ATOM     10  C   UNL     1       0.426  -0.352  -1.962  1.00  0.00     0.087 A 
ATOM     11  C   UNL     1       1.489   0.024  -0.059  1.00  0.00     0.003 A 
ATOM     12  N   UNL     1       1.526  -1.139  -1.973  1.00  0.00    -0.361 N 
ATOM     13  C   UNL     1       1.960   0.435   1.189  1.00  0.00     0.010 A 
ATOM     14  C   UNL     1       2.163  -0.904  -0.814  1.00  0.00     0.046 A 
ATOM     15  C   UNL     1       3.158  -0.133   1.658  1.00  0.00     0.001 A 
ATOM     16  C   UNL     1       3.353  -1.481  -0.374  1.00  0.00     0.026 A 
ATOM     17  C   UNL     1       3.852  -1.086   0.881  1.00  0.00     0.002 A 
ATOM     18  H   UNL     1       1.820  -1.790  -2.734  1.00  0.00     0.166 HD
ENDBRANCH   8   9
ENDBRANCH   1   8
TORSDOF 4
