REMARK SMILES C=CCSC(CC)(CC)C(N)=O
REMARK SMILES IDX 4 1 3 2 2 3 1 4 5 5 6 6 7 7 8 8 9 9 10 10 11 11 12 12
REMARK H PARENT 11 13 11 14
ROOT
ATOM      1  S   UNL     1       0.764   0.050  -1.788  1.00  0.00    -0.141 SA
ENDROOT
BRANCH   1   2
ATOM      2  C   UNL     1       2.229   0.671  -0.871  1.00  0.00     0.097 C 
BRANCH   2   3
ATOM      3  C   UNL     1       3.045  -0.471  -0.339  1.00  0.00    -0.024 C 
ATOM      4  C   UNL     1       3.668  -1.328  -1.153  1.00  0.00     0.005 C 
ENDBRANCH   2   3
ENDBRANCH   1   2
BRANCH   1   5
ATOM      5  C   UNL     1      -0.584   0.224  -0.527  1.00  0.00     0.094 C 
BRANCH   5   6
ATOM      6  C   UNL     1      -0.918   1.750  -0.433  1.00  0.00     0.024 C 
ATOM      7  C   UNL     1      -1.939   2.149   0.636  1.00  0.00     0.006 C 
ENDBRANCH   5   6
BRANCH   5   8
ATOM      8  C   UNL     1      -0.122  -0.379   0.842  1.00  0.00     0.024 C 
ATOM      9  C   UNL     1      -1.232  -0.932   1.750  1.00  0.00     0.006 C 
ENDBRANCH   5   8
BRANCH   5  10
ATOM     10  C   UNL     1      -1.751  -0.569  -1.105  1.00  0.00     0.233 C 
ATOM     11  N   UNL     1      -1.624  -1.975  -1.336  1.00  0.00    -0.368 N 
ATOM     12  O   UNL     1      -2.828   0.002  -1.428  1.00  0.00    -0.274 OA
ATOM     13  H   UNL     1      -2.421  -2.516  -1.741  1.00  0.00     0.159 HD
ATOM     14  H   UNL     1      -0.739  -2.481  -1.109  1.00  0.00     0.159 HD
ENDBRANCH   5  10
ENDBRANCH   1   5
TORSDOF 6
