REMARK SMILES O=C(NC1CCCCC1)c1cc2ccccc2cc1O
REMARK SMILES IDX 10 1 11 2 12 3 13 4 14 5 15 6 16 7 17 8 18 9 19 10 2 11 3 12
REMARK SMILES IDX 1 13 4 15 5 16 9 17 6 18 8 19 7 20 20 21
REMARK H PARENT 3 14 20 22
ROOT
ATOM      1  C   UNL     1      -0.825  -3.785   2.069  1.00  0.00     0.082 A 
ATOM      2  C   UNL     1       0.189  -3.009   2.656  1.00  0.00     0.026 A 
ATOM      3  C   UNL     1       1.133  -3.592   3.512  1.00  0.00    -0.017 A 
ATOM      4  C   UNL     1       2.150  -2.817   4.091  1.00  0.00     0.009 A 
ATOM      5  C   UNL     1       3.090  -3.411   4.938  1.00  0.00     0.001 A 
ATOM      6  C   UNL     1       3.022  -4.779   5.213  1.00  0.00     0.001 A 
ATOM      7  C   UNL     1       2.015  -5.562   4.641  1.00  0.00     0.009 A 
ATOM      8  C   UNL     1       1.066  -4.977   3.788  1.00  0.00    -0.015 A 
ATOM      9  C   UNL     1       0.050  -5.750   3.213  1.00  0.00     0.055 A 
ATOM     10  C   UNL     1      -0.903  -5.166   2.370  1.00  0.00     0.128 A 
ENDROOT
BRANCH   1  11
ATOM     11  C   UNL     1      -1.758  -3.135   1.123  1.00  0.00     0.255 C 
ATOM     12  N   UNL     1      -2.311  -1.844   1.424  1.00  0.00    -0.349 N 
ATOM     13  O   UNL     1      -2.040  -3.704   0.033  1.00  0.00    -0.269 OA
ATOM     14  H   UNL     1      -2.163  -1.452   2.382  1.00  0.00     0.164 HD
BRANCH  12  15
ATOM     15  C   UNL     1      -3.124  -1.096   0.459  1.00  0.00     0.082 C 
ATOM     16  C   UNL     1      -2.223  -0.501  -0.639  1.00  0.00     0.025 C 
ATOM     17  C   UNL     1      -3.905   0.024   1.174  1.00  0.00     0.025 C 
ATOM     18  C   UNL     1      -3.042   0.328  -1.636  1.00  0.00     0.002 C 
ATOM     19  C   UNL     1      -4.726   0.849   0.175  1.00  0.00     0.002 C 
ATOM     20  C   UNL     1      -3.828   1.434  -0.921  1.00  0.00     0.000 C 
ENDBRANCH  12  15
ENDBRANCH   1  11
BRANCH  10  21
ATOM     21  O   UNL     1      -1.924  -5.981   1.877  1.00  0.00    -0.507 OA
ATOM     22  H   UNL     1      -2.721  -5.626   1.366  1.00  0.00     0.293 HD
ENDBRANCH  10  21
TORSDOF 3
