REMARK SMILES O=C1NC(=O)/C(=C/c2cccc([N+](=O)[O-])c2)N1
REMARK SMILES IDX 8 1 9 2 10 3 11 4 12 5 16 6 7 7 6 8 2 9 3 10 17 11 4 12 1 13
REMARK SMILES IDX 5 16 13 17 14 18 15 19
REMARK H PARENT 3 14 17 15
ROOT
ATOM      1  C   UNL     1      -0.525   0.067   0.722  1.00  0.00    -0.017 A 
ATOM      2  C   UNL     1      -0.640  -1.326   0.580  1.00  0.00     0.009 A 
ATOM      3  C   UNL     1      -1.862  -1.897   0.222  1.00  0.00     0.008 A 
ATOM      4  C   UNL     1      -2.984  -1.090   0.021  1.00  0.00     0.085 A 
ATOM      5  C   UNL     1      -2.897   0.304   0.187  1.00  0.00     0.270 A 
ATOM      6  C   UNL     1      -1.662   0.872   0.549  1.00  0.00     0.093 A 
ENDROOT
BRANCH   1   7
ATOM      7  C   UNL     1       0.745   0.696   1.139  1.00  0.00     0.040 C 
BRANCH   7   8
ATOM      8  C   UNL     1       1.943   0.374   0.630  1.00  0.00     0.109 C 
ATOM      9  C   UNL     1       3.589  -0.455  -0.676  1.00  0.00     0.326 C 
ATOM     10  N   UNL     1       4.263   0.430   0.213  1.00  0.00    -0.272 N 
ATOM     11  N   UNL     1       2.182  -0.524  -0.454  1.00  0.00    -0.303 N 
ATOM     12  C   UNL     1       3.223   0.956   1.024  1.00  0.00     0.275 C 
ATOM     13  O   UNL     1       4.176  -1.098  -1.586  1.00  0.00    -0.248 OA
ATOM     14  H   UNL     1       5.280   0.665   0.239  1.00  0.00     0.175 HD
ATOM     15  H   UNL     1       1.484  -0.994  -1.071  1.00  0.00     0.172 HD
ATOM     16  O   UNL     1       3.403   1.805   1.936  1.00  0.00    -0.267 OA
ENDBRANCH   7   8
ENDBRANCH   1   7
BRANCH   5  17
ATOM     17  N   UNL     1      -4.054   1.139  -0.005  1.00  0.00     0.062 N 
ATOM     18  O   UNL     1      -5.154   0.641  -0.324  1.00  0.00    -0.258 OA
ATOM     19  O   UNL     1      -3.968   2.503   0.159  1.00  0.00    -0.258 OA
ENDBRANCH   5  17
TORSDOF 3
