REMARK SMILES COc1cc([C@@H]2NC(=O)[C@@H](C#N)C(=Nc3cccc(C)c3)S2)ccc1O
REMARK SMILES IDX 10 1 8 2 9 3 7 4 6 5 22 6 13 7 11 9 12 10 14 11 15 12 16 13
REMARK SMILES IDX 21 14 17 15 19 16 18 17 20 18 5 19 23 20 4 21 24 22 3 23
REMARK SMILES IDX 25 24 2 25 1 26 26 27
REMARK H PARENT 7 8 26 28
ROOT
ATOM      1  C   UNL     1      -0.371   2.554  -2.574  1.00  0.00     0.237 C 
ATOM      2  C   UNL     1      -1.352   3.222  -1.645  1.00  0.00     0.245 C 
ATOM      3  O   UNL     1      -2.426   3.672  -2.129  1.00  0.00    -0.273 OA
ATOM      4  N   UNL     1      -1.098   3.398  -0.236  1.00  0.00    -0.338 N 
ATOM      5  C   UNL     1       0.004   2.781   0.519  1.00  0.00     0.177 C 
ATOM      6  S   UNL     1       1.511   2.593  -0.497  1.00  0.00    -0.079 SA
ATOM      7  C   UNL     1       0.617   1.745  -1.802  1.00  0.00     0.103 C 
ATOM      8  H   UNL     1      -1.823   3.904   0.321  1.00  0.00     0.165 HD
ENDROOT
BRANCH   1   9
ATOM      9  C   UNL     1       0.330   3.568  -3.371  1.00  0.00     0.083 C 
ATOM     10  N   UNL     1       0.883   4.368  -4.000  1.00  0.00    -0.197 NA
ENDBRANCH   1   9
BRANCH   7  11
ATOM     11  N   UNL     1       0.638   0.450  -1.943  1.00  0.00    -0.245 NA
BRANCH  11  12
ATOM     12  C   UNL     1       1.469  -0.476  -1.227  1.00  0.00     0.064 A 
ATOM     13  C   UNL     1       2.844  -0.249  -1.046  1.00  0.00     0.028 A 
ATOM     14  C   UNL     1       0.899  -1.663  -0.751  1.00  0.00     0.031 A 
ATOM     15  C   UNL     1       3.619  -1.169  -0.335  1.00  0.00     0.002 A 
ATOM     16  C   UNL     1       1.675  -2.592  -0.040  1.00  0.00    -0.049 A 
ATOM     17  C   UNL     1       3.035  -2.329   0.180  1.00  0.00     0.003 A 
ATOM     18  C   UNL     1       1.048  -3.826   0.536  1.00  0.00     0.044 C 
ENDBRANCH  11  12
ENDBRANCH   7  11
BRANCH   5  19
ATOM     19  C   UNL     1      -0.387   1.458   1.151  1.00  0.00    -0.011 A 
ATOM     20  C   UNL     1       0.361   0.981   2.239  1.00  0.00     0.011 A 
ATOM     21  C   UNL     1      -1.427   0.657   0.639  1.00  0.00     0.057 A 
ATOM     22  C   UNL     1       0.068  -0.254   2.816  1.00  0.00     0.050 A 
ATOM     23  C   UNL     1      -1.724  -0.594   1.214  1.00  0.00     0.160 A 
ATOM     24  C   UNL     1      -0.971  -1.042   2.314  1.00  0.00     0.157 A 
BRANCH  23  25
ATOM     25  O   UNL     1      -2.744  -1.419   0.714  1.00  0.00    -0.493 OA
ATOM     26  C   UNL     1      -3.542  -1.115  -0.426  1.00  0.00     0.278 C 
ENDBRANCH  23  25
BRANCH  24  27
ATOM     27  O   UNL     1      -1.234  -2.272   2.915  1.00  0.00    -0.504 OA
ATOM     28  H   UNL     1      -1.967  -2.889   2.586  1.00  0.00     0.293 HD
ENDBRANCH  24  27
ENDBRANCH   5  19
TORSDOF 6
