REMARK SMILES O=C(Nc1cccc(Cl)c1)Nn1cnnc1
REMARK SMILES IDX 4 1 5 2 6 3 7 4 8 5 9 6 10 7 3 8 2 9 11 10 1 11 12 14 13 15
REMARK SMILES IDX 16 16 14 17 15 18
REMARK H PARENT 3 12 11 13
ROOT
ATOM      1  C   UNL     1       1.639  -0.306   0.088  1.00  0.00     0.044 A 
ATOM      2  C   UNL     1       2.006   0.916  -0.505  1.00  0.00     0.026 A 
ATOM      3  C   UNL     1       3.286   1.441  -0.302  1.00  0.00     0.004 A 
ATOM      4  C   UNL     1       4.213   0.748   0.479  1.00  0.00     0.020 A 
ATOM      5  C   UNL     1       3.865  -0.479   1.054  1.00  0.00     0.043 A 
ATOM      6  Cl  UNL     1       5.035  -1.356   2.023  1.00  0.00    -0.084 Cl
ATOM      7  C   UNL     1       2.585  -1.007   0.852  1.00  0.00     0.046 A 
ENDROOT
BRANCH   1   8
ATOM      8  N   UNL     1       0.338  -0.882  -0.123  1.00  0.00    -0.307 N 
ATOM      9  C   UNL     1      -0.873  -0.120  -0.245  1.00  0.00     0.338 C 
ATOM     10  N   UNL     1      -2.075  -0.772  -0.678  1.00  0.00    -0.242 N 
ATOM     11  O   UNL     1      -0.880   1.110   0.031  1.00  0.00    -0.247 OA
ATOM     12  H   UNL     1       0.252  -1.923  -0.097  1.00  0.00     0.171 HD
ATOM     13  H   UNL     1      -1.990  -1.722  -1.105  1.00  0.00     0.194 HD
BRANCH  10  14
ATOM     14  N   UNL     1      -3.345  -0.166  -0.635  1.00  0.00    -0.226 N 
ATOM     15  C   UNL     1      -3.784   0.823   0.164  1.00  0.00     0.247 A 
ATOM     16  C   UNL     1      -4.434  -0.556  -1.316  1.00  0.00     0.247 A 
ATOM     17  N   UNL     1      -5.097   1.045  -0.039  1.00  0.00    -0.137 NA
ATOM     18  N   UNL     1      -5.502   0.185  -0.965  1.00  0.00    -0.137 NA
ENDBRANCH  10  14
ENDBRANCH   1   8
TORSDOF 2
