REMARK SMILES Cc1cc(/C=C2\SC(=S)NC2=O)cc(C)c1O
REMARK SMILES IDX 1 1 2 2 3 3 4 4 13 5 14 6 15 7 16 8 17 9 5 11 6 12 7 13
REMARK SMILES IDX 11 14 8 15 10 16 12 17 9 18
REMARK H PARENT 17 10 10 19
ROOT
ATOM      1  C   UNL     1      -3.624  -1.423   0.367  1.00  0.00     0.048 C 
ATOM      2  C   UNL     1      -2.375  -0.616   0.139  1.00  0.00    -0.008 A 
ATOM      3  C   UNL     1      -1.152  -1.265  -0.085  1.00  0.00     0.015 A 
ATOM      4  C   UNL     1       0.022  -0.529  -0.282  1.00  0.00    -0.024 A 
ATOM      5  C   UNL     1      -0.041   0.872  -0.307  1.00  0.00     0.015 A 
ATOM      6  C   UNL     1      -1.256   1.541  -0.085  1.00  0.00    -0.008 A 
ATOM      7  C   UNL     1      -1.285   3.045  -0.105  1.00  0.00     0.048 C 
ATOM      8  C   UNL     1      -2.432   0.790   0.144  1.00  0.00     0.121 A 
ENDROOT
BRANCH   8   9
ATOM      9  O   UNL     1      -3.663   1.415   0.371  1.00  0.00    -0.507 OA
ATOM     10  H   UNL     1      -3.780   2.419   0.388  1.00  0.00     0.293 HD
ENDBRANCH   8   9
BRANCH   4  11
ATOM     11  C   UNL     1       1.285  -1.248  -0.545  1.00  0.00     0.029 C 
BRANCH  11  12
ATOM     12  C   UNL     1       2.454  -0.956   0.046  1.00  0.00     0.080 C 
ATOM     13  S   UNL     1       2.671   0.273   1.351  1.00  0.00    -0.055 SA
ATOM     14  C   UNL     1       3.688  -1.695  -0.211  1.00  0.00     0.263 C 
ATOM     15  C   UNL     1       4.394  -0.226   1.458  1.00  0.00     0.145 C 
ATOM     16  N   UNL     1       4.781  -1.277   0.583  1.00  0.00    -0.307 N 
ATOM     17  O   UNL     1       3.793  -2.616  -1.065  1.00  0.00    -0.268 OA
ATOM     18  S   UNL     1       5.506   0.716   2.195  1.00  0.00    -0.052 S 
ATOM     19  H   UNL     1       5.755  -1.643   0.486  1.00  0.00     0.171 HD
ENDBRANCH  11  12
ENDBRANCH   4  11
TORSDOF 3
