REMARK SMILES CC(C)[NH2+]C[C@@H]1CCc2cc(CO)c([N+](=O)[O-])cc2N1
REMARK SMILES IDX 6 1 7 2 20 3 8 4 19 5 9 6 18 7 10 8 14 9 11 10 5 12 4 13
REMARK SMILES IDX 2 16 1 17 3 18 15 19 16 20 17 21 12 22 13 23
REMARK H PARENT 20 11 4 14 4 15 13 24
ROOT
ATOM      1  C   UNL     1       1.083  -0.738   0.415  1.00  0.00     0.134 C 
ATOM      2  C   UNL     1       0.605  -1.474  -0.855  1.00  0.00     0.035 C 
ATOM      3  N   UNL     1      -0.043  -0.587   1.338  1.00  0.00    -0.376 N 
ATOM      4  C   UNL     1      -0.600  -0.779  -1.505  1.00  0.00     0.040 C 
ATOM      5  C   UNL     1      -1.381  -0.353   0.869  1.00  0.00     0.045 A 
ATOM      6  C   UNL     1      -1.682  -0.465  -0.500  1.00  0.00    -0.024 A 
ATOM      7  C   UNL     1      -2.397  -0.045   1.781  1.00  0.00     0.112 A 
ATOM      8  C   UNL     1      -2.986  -0.215  -0.944  1.00  0.00     0.019 A 
ATOM      9  C   UNL     1      -3.716   0.174   1.349  1.00  0.00     0.276 A 
ATOM     10  C   UNL     1      -4.007   0.118  -0.038  1.00  0.00     0.056 A 
ATOM     11  H   UNL     1       0.159  -0.548   2.363  1.00  0.00     0.161 HD
ENDROOT
BRANCH   1  12
ATOM     12  C   UNL     1       1.704   0.657   0.147  1.00  0.00     0.285 C 
BRANCH  12  13
ATOM     13  N   UNL     1       2.946   0.627  -0.651  1.00  0.00    -0.343 N 
ATOM     14  H   UNL     1       2.773   0.163  -1.571  1.00  0.00     0.346 HD
ATOM     15  H   UNL     1       3.160   1.625  -0.890  1.00  0.00     0.346 HD
BRANCH  13  16
ATOM     16  C   UNL     1       4.098   0.017   0.070  1.00  0.00     0.176 C 
ATOM     17  C   UNL     1       5.324   0.945   0.045  1.00  0.00     0.075 C 
ATOM     18  C   UNL     1       4.478  -1.345  -0.535  1.00  0.00     0.075 C 
ENDBRANCH  13  16
ENDBRANCH  12  13
ENDBRANCH   1  12
BRANCH   9  19
ATOM     19  N   UNL     1      -4.735   0.454   2.325  1.00  0.00     0.063 N 
ATOM     20  O   UNL     1      -4.446   1.068   3.373  1.00  0.00    -0.258 OA
ATOM     21  O   UNL     1      -5.985  -0.110   2.215  1.00  0.00    -0.258 OA
ENDBRANCH   9  19
BRANCH  10  22
ATOM     22  C   UNL     1      -5.384   0.409  -0.585  1.00  0.00     0.199 C 
BRANCH  22  23
ATOM     23  O   UNL     1      -6.168  -0.752  -0.569  1.00  0.00    -0.391 OA
ATOM     24  H   UNL     1      -5.846  -1.323  -1.315  1.00  0.00     0.211 HD
ENDBRANCH  22  23
ENDBRANCH  10  22
TORSDOF 6
