REMARK SMILES S=c1nc[nH]c2sc(Nc3ccccc3)nc12
REMARK SMILES IDX 5 1 4 2 3 3 2 4 1 5 17 6 16 7 8 8 7 9 6 10 9 12 10 14 11 15
REMARK SMILES IDX 15 16 12 17 14 18 13 19
REMARK H PARENT 5 11 9 13
ROOT
ATOM      1  N   UNL     1       3.589   0.753   1.184  1.00  0.00    -0.336 N 
ATOM      2  C   UNL     1       4.855   0.391   0.826  1.00  0.00     0.199 A 
ATOM      3  N   UNL     1       5.057  -0.537  -0.159  1.00  0.00    -0.225 NA
ATOM      4  C   UNL     1       4.012  -1.125  -0.809  1.00  0.00     0.156 A 
ATOM      5  S   UNL     1       4.299  -2.233  -1.979  1.00  0.00    -0.055 S 
ATOM      6  C   UNL     1       2.714  -0.759  -0.451  1.00  0.00     0.137 A 
ATOM      7  N   UNL     1       1.566  -1.248  -0.987  1.00  0.00    -0.215 NA
ATOM      8  C   UNL     1       0.483  -0.669  -0.411  1.00  0.00     0.189 A 
ATOM      9  S   UNL     1       0.908   0.443   0.806  1.00  0.00    -0.078 S 
ATOM     10  C   UNL     1       2.543   0.178   0.544  1.00  0.00     0.126 A 
ATOM     11  H   UNL     1       3.432   1.460   1.937  1.00  0.00     0.168 HD
ENDROOT
BRANCH   8  12
ATOM     12  N   UNL     1      -0.857  -1.056  -0.746  1.00  0.00    -0.331 N 
ATOM     13  H   UNL     1      -0.987  -1.972  -1.230  1.00  0.00     0.169 HD
BRANCH  12  14
ATOM     14  C   UNL     1      -2.028  -0.316  -0.367  1.00  0.00     0.040 A 
ATOM     15  C   UNL     1      -2.052   1.089  -0.416  1.00  0.00     0.026 A 
ATOM     16  C   UNL     1      -3.195  -1.008  -0.008  1.00  0.00     0.026 A 
ATOM     17  C   UNL     1      -3.213   1.787  -0.070  1.00  0.00     0.002 A 
ATOM     18  C   UNL     1      -4.354  -0.308   0.338  1.00  0.00     0.002 A 
ATOM     19  C   UNL     1      -4.362   1.089   0.311  1.00  0.00     0.000 A 
ENDBRANCH  12  14
ENDBRANCH   8  12
TORSDOF 2
