REMARK SMILES COc1ccc2nccc(C(N)=O)c2c1
REMARK SMILES IDX 3 1 4 2 5 3 6 4 7 5 8 6 9 7 10 8 14 9 15 10 2 11 1 12 11 13
REMARK SMILES IDX 12 14 13 15
REMARK H PARENT 12 16 12 17
ROOT
ATOM      1  C   UNL     1       1.795   0.451   0.362  1.00  0.00     0.119 A 
ATOM      2  C   UNL     1       2.289  -0.702  -0.273  1.00  0.00     0.048 A 
ATOM      3  C   UNL     1       1.412  -1.599  -0.886  1.00  0.00     0.033 A 
ATOM      4  C   UNL     1       0.036  -1.354  -0.883  1.00  0.00     0.071 A 
ATOM      5  N   UNL     1      -0.802  -2.254  -1.460  1.00  0.00    -0.256 NA
ATOM      6  C   UNL     1      -2.147  -2.074  -1.474  1.00  0.00     0.112 A 
ATOM      7  C   UNL     1      -2.708  -0.936  -0.897  1.00  0.00     0.034 A 
ATOM      8  C   UNL     1      -1.884   0.032  -0.302  1.00  0.00     0.050 A 
ATOM      9  C   UNL     1      -0.481  -0.183  -0.275  1.00  0.00     0.017 A 
ATOM     10  C   UNL     1       0.417   0.700   0.363  1.00  0.00     0.057 A 
ENDROOT
BRANCH   1  11
ATOM     11  O   UNL     1       2.636   1.370   1.007  1.00  0.00    -0.497 OA
ATOM     12  C   UNL     1       4.052   1.246   1.088  1.00  0.00     0.278 C 
ENDBRANCH   1  11
BRANCH   8  13
ATOM     13  C   UNL     1      -2.522   1.255   0.239  1.00  0.00     0.249 C 
ATOM     14  N   UNL     1      -3.705   1.165   1.035  1.00  0.00    -0.366 N 
ATOM     15  O   UNL     1      -2.048   2.390  -0.035  1.00  0.00    -0.270 OA
ATOM     16  H   UNL     1      -4.099   0.238   1.310  1.00  0.00     0.159 HD
ATOM     17  H   UNL     1      -4.172   2.032   1.381  1.00  0.00     0.159 HD
ENDBRANCH   8  13
TORSDOF 2
