REMARK SMILES c1ccc(CSc2nnc3c4ccccc4c4ccccc4c3n2)cc1
REMARK SMILES IDX 5 1 4 2 1 3 2 4 26 5 3 6 25 7 6 8 7 9 8 10 24 11 9 12 23 13
REMARK SMILES IDX 10 14 22 15 11 16 21 17 17 18 12 19 16 20 20 21 18 22 13 23
REMARK SMILES IDX 15 24 19 25 14 26
REMARK H PARENT
ROOT
ATOM      1  C   UNL     1       3.314  -2.323   0.425  1.00  0.00     0.113 C 
ENDROOT
BRANCH   1   2
ATOM      2  C   UNL     1       3.823  -1.251  -0.500  1.00  0.00    -0.038 A 
ATOM      3  C   UNL     1       4.759   0.794  -2.178  1.00  0.00     0.000 A 
ATOM      4  C   UNL     1       5.600   0.250  -1.203  1.00  0.00     0.000 A 
ATOM      5  C   UNL     1       3.451   0.321  -2.316  1.00  0.00     0.000 A 
ATOM      6  C   UNL     1       5.135  -0.767  -0.364  1.00  0.00     0.004 A 
ATOM      7  C   UNL     1       2.982  -0.698  -1.481  1.00  0.00     0.004 A 
ENDBRANCH   1   2
BRANCH   1   8
ATOM      8  S   UNL     1       2.976  -1.649   2.090  1.00  0.00    -0.080 SA
BRANCH   8   9
ATOM      9  C   UNL     1       1.575  -0.664   1.570  1.00  0.00     0.210 A 
ATOM     10  N   UNL     1       1.742   0.642   1.248  1.00  0.00    -0.123 NA
ATOM     11  N   UNL     1       0.344  -1.223   1.481  1.00  0.00    -0.219 NA
ATOM     12  N   UNL     1       0.710   1.378   0.838  1.00  0.00    -0.145 NA
ATOM     13  C   UNL     1      -0.730  -0.497   1.065  1.00  0.00     0.102 A 
ATOM     14  C   UNL     1      -0.542   0.853   0.728  1.00  0.00     0.120 A 
ATOM     15  C   UNL     1      -2.005  -1.085   0.967  1.00  0.00     0.010 A 
ATOM     16  C   UNL     1      -1.623   1.638   0.289  1.00  0.00     0.012 A 
ATOM     17  C   UNL     1      -2.187  -2.443   1.305  1.00  0.00     0.011 A 
ATOM     18  C   UNL     1      -3.118  -0.310   0.525  1.00  0.00    -0.008 A 
ATOM     19  C   UNL     1      -1.423   2.994  -0.049  1.00  0.00     0.011 A 
ATOM     20  C   UNL     1      -2.925   1.066   0.182  1.00  0.00    -0.008 A 
ATOM     21  C   UNL     1      -3.442  -3.037   1.213  1.00  0.00     0.001 A 
ATOM     22  C   UNL     1      -4.382  -0.949   0.444  1.00  0.00     0.009 A 
ATOM     23  C   UNL     1      -2.483   3.782  -0.485  1.00  0.00     0.001 A 
ATOM     24  C   UNL     1      -3.982   1.899  -0.266  1.00  0.00     0.009 A 
ATOM     25  C   UNL     1      -4.534  -2.293   0.785  1.00  0.00     0.001 A 
ATOM     26  C   UNL     1      -3.757   3.237  -0.593  1.00  0.00     0.001 A 
ENDBRANCH   8   9
ENDBRANCH   1   8
TORSDOF 3
