REMARK SMILES Cc1[nH]c2ccccc2c(=N)c1-c1cc(C)c2c(C)nc3ccccc3c2n1
REMARK SMILES IDX 3 1 2 2 1 3 12 4 10 5 9 6 8 7 7 8 6 9 5 10 4 11 13 13 14 14
REMARK SMILES IDX 28 15 15 16 27 17 17 18 26 19 18 20 25 21 21 22 20 23 24 24
REMARK SMILES IDX 22 25 23 26 16 27 19 28 11 29
REMARK H PARENT 3 12 11 30
ROOT
ATOM      1  N   UNL     1       3.540   0.922  -1.218  1.00  0.00    -0.358 N 
ATOM      2  C   UNL     1       2.235   0.536  -1.189  1.00  0.00     0.024 A 
ATOM      3  C   UNL     1       1.378   0.775  -2.407  1.00  0.00     0.065 C 
ATOM      4  C   UNL     1       1.704  -0.061  -0.023  1.00  0.00     0.045 A 
ATOM      5  C   UNL     1       2.542  -0.265   1.097  1.00  0.00     0.074 A 
ATOM      6  C   UNL     1       3.910   0.121   1.028  1.00  0.00     0.024 A 
ATOM      7  C   UNL     1       4.826  -0.066   2.092  1.00  0.00     0.012 A 
ATOM      8  C   UNL     1       6.155   0.344   1.971  1.00  0.00     0.001 A 
ATOM      9  C   UNL     1       6.602   0.943   0.796  1.00  0.00     0.002 A 
ATOM     10  C   UNL     1       5.722   1.134  -0.267  1.00  0.00     0.027 A 
ATOM     11  C   UNL     1       4.381   0.728  -0.165  1.00  0.00     0.048 A 
ATOM     12  H   UNL     1       3.912   1.377  -2.084  1.00  0.00     0.166 HD
ENDROOT
BRANCH   4  13
ATOM     13  C   UNL     1       0.273  -0.456   0.030  1.00  0.00     0.075 A 
ATOM     14  C   UNL     1      -0.096  -1.779   0.256  1.00  0.00     0.033 A 
ATOM     15  N   UNL     1      -0.685   0.474  -0.180  1.00  0.00    -0.247 NA
ATOM     16  C   UNL     1      -1.452  -2.151   0.285  1.00  0.00    -0.038 A 
ATOM     17  C   UNL     1      -2.014   0.189  -0.156  1.00  0.00     0.082 A 
ATOM     18  C   UNL     1      -2.461  -1.142   0.112  1.00  0.00     0.025 A 
ATOM     19  C   UNL     1      -2.935   1.225  -0.402  1.00  0.00     0.027 A 
ATOM     20  C   UNL     1      -3.879  -1.353   0.181  1.00  0.00     0.048 A 
ATOM     21  C   UNL     1      -2.522   2.543  -0.695  1.00  0.00     0.012 A 
ATOM     22  C   UNL     1      -4.309   0.935  -0.359  1.00  0.00     0.073 A 
ATOM     23  N   UNL     1      -4.724  -0.317  -0.065  1.00  0.00    -0.252 NA
ATOM     24  C   UNL     1      -3.470   3.540  -0.941  1.00  0.00     0.001 A 
ATOM     25  C   UNL     1      -5.253   1.940  -0.604  1.00  0.00     0.029 A 
ATOM     26  C   UNL     1      -4.833   3.240  -0.896  1.00  0.00     0.002 A 
ATOM     27  C   UNL     1      -1.728  -3.626   0.447  1.00  0.00     0.045 C 
ATOM     28  C   UNL     1      -4.547  -2.643   0.564  1.00  0.00     0.067 C 
ENDBRANCH   4  13
BRANCH   5  29
ATOM     29  N   UNL     1       2.020  -0.781   2.174  1.00  0.00    -0.299 NA
ATOM     30  H   UNL     1       2.509  -0.974   3.071  1.00  0.00     0.188 HD
ENDBRANCH   5  29
TORSDOF 2
