REMARK SMILES c1ccc(-c2nc(-c3nccc4ccccc34)oc2-c2ccccc2)cc1
REMARK SMILES IDX 5 1 6 2 7 3 18 4 19 5 4 6 1 7 2 8 27 9 3 10 26 11 20 12
REMARK SMILES IDX 21 13 25 14 22 15 24 16 23 17 8 18 9 19 17 20 10 21 16 22
REMARK SMILES IDX 12 23 11 24 15 25 13 26 14 27
REMARK H PARENT
ROOT
ATOM      1  C   UNL     1      -0.854  -0.405   0.042  1.00  0.00     0.118 A 
ATOM      2  N   UNL     1       0.444  -0.749   0.141  1.00  0.00    -0.207 NA
ATOM      3  C   UNL     1       1.091   0.240  -0.512  1.00  0.00     0.246 A 
ATOM      4  O   UNL     1       0.268   1.135  -1.011  1.00  0.00    -0.434 OA
ATOM      5  C   UNL     1      -0.950   0.767  -0.695  1.00  0.00     0.163 A 
ENDROOT
BRANCH   1   6
ATOM      6  C   UNL     1      -1.933  -1.157   0.715  1.00  0.00     0.004 A 
ATOM      7  C   UNL     1      -3.938  -2.613   2.037  1.00  0.00     0.000 A 
ATOM      8  C   UNL     1      -3.988  -1.217   2.016  1.00  0.00     0.001 A 
ATOM      9  C   UNL     1      -2.883  -3.284   1.414  1.00  0.00     0.001 A 
ATOM     10  C   UNL     1      -2.987  -0.490   1.365  1.00  0.00     0.010 A 
ATOM     11  C   UNL     1      -1.879  -2.560   0.762  1.00  0.00     0.010 A 
ENDBRANCH   1   6
BRANCH   5  12
ATOM     12  C   UNL     1      -2.156   1.503  -1.125  1.00  0.00     0.020 A 
ATOM     13  C   UNL     1      -3.324   0.823  -1.512  1.00  0.00     0.012 A 
ATOM     14  C   UNL     1      -2.119   2.904  -1.211  1.00  0.00     0.012 A 
ATOM     15  C   UNL     1      -4.448   1.537  -1.937  1.00  0.00     0.001 A 
ATOM     16  C   UNL     1      -3.245   3.615  -1.637  1.00  0.00     0.001 A 
ATOM     17  C   UNL     1      -4.410   2.933  -1.995  1.00  0.00     0.000 A 
ENDBRANCH   5  12
BRANCH   3  18
ATOM     18  C   UNL     1       2.553   0.296  -0.717  1.00  0.00     0.133 A 
ATOM     19  N   UNL     1       2.985   0.855  -1.881  1.00  0.00    -0.250 NA
ATOM     20  C   UNL     1       3.508  -0.218   0.203  1.00  0.00     0.013 A 
ATOM     21  C   UNL     1       4.295   0.913  -2.226  1.00  0.00     0.112 A 
ATOM     22  C   UNL     1       3.163  -0.718   1.478  1.00  0.00     0.011 A 
ATOM     23  C   UNL     1       4.881  -0.183  -0.162  1.00  0.00    -0.014 A 
ATOM     24  C   UNL     1       5.265   0.381  -1.383  1.00  0.00     0.029 A 
ATOM     25  C   UNL     1       4.146  -1.220   2.334  1.00  0.00     0.001 A 
ATOM     26  C   UNL     1       5.855  -0.696   0.709  1.00  0.00     0.009 A 
ATOM     27  C   UNL     1       5.485  -1.219   1.948  1.00  0.00     0.001 A 
ENDBRANCH   3  18
TORSDOF 3
