REMARK SMILES COc1ccc2[nH]c3c4c(ccc3c2c1)C(=O)C=CC4=O
REMARK SMILES IDX 3 1 4 2 5 3 6 4 7 5 8 6 9 7 10 8 11 9 12 10 13 11 14 12
REMARK SMILES IDX 15 13 16 14 17 15 18 16 19 17 20 18 21 19 2 21 1 22
REMARK H PARENT 7 20
ROOT
ATOM      1  C   UNL     1       3.444  -0.261   0.274  1.00  0.00     0.119 A 
ATOM      2  C   UNL     1       3.398   0.804  -0.670  1.00  0.00     0.048 A 
ATOM      3  C   UNL     1       2.167   1.329  -1.102  1.00  0.00     0.030 A 
ATOM      4  C   UNL     1       0.999   0.777  -0.581  1.00  0.00     0.047 A 
ATOM      5  N   UNL     1      -0.270   1.137  -0.866  1.00  0.00    -0.354 N 
ATOM      6  C   UNL     1      -1.050   0.317  -0.117  1.00  0.00     0.059 A 
ATOM      7  C   UNL     1      -2.459   0.271  -0.039  1.00  0.00     0.057 A 
ATOM      8  C   UNL     1      -3.036  -0.694   0.833  1.00  0.00     0.035 A 
ATOM      9  C   UNL     1      -2.209  -1.566   1.585  1.00  0.00     0.014 A 
ATOM     10  C   UNL     1      -0.813  -1.497   1.486  1.00  0.00     0.012 A 
ATOM     11  C   UNL     1      -0.269  -0.548   0.629  1.00  0.00     0.008 A 
ATOM     12  C   UNL     1       1.041  -0.252   0.331  1.00  0.00     0.011 A 
ATOM     13  C   UNL     1       2.242  -0.794   0.780  1.00  0.00     0.057 A 
ATOM     14  C   UNL     1      -4.511  -0.776   0.945  1.00  0.00     0.186 C 
ATOM     15  O   UNL     1      -5.054  -1.620   1.708  1.00  0.00    -0.289 OA
ATOM     16  C   UNL     1      -5.361   0.135   0.160  1.00  0.00     0.056 C 
ATOM     17  C   UNL     1      -4.824   1.042  -0.659  1.00  0.00     0.057 C 
ATOM     18  C   UNL     1      -3.363   1.167  -0.810  1.00  0.00     0.188 C 
ATOM     19  O   UNL     1      -2.911   2.040  -1.596  1.00  0.00    -0.289 OA
ATOM     20  H   UNL     1      -0.553   1.891  -1.528  1.00  0.00     0.167 HD
ENDROOT
BRANCH   1  21
ATOM     21  O   UNL     1       4.653  -0.808   0.727  1.00  0.00    -0.497 OA
ATOM     22  C   UNL     1       5.940  -0.371   0.305  1.00  0.00     0.278 C 
ENDBRANCH   1  21
TORSDOF 1
