REMARK SMILES CC(=O)OCCn1c2nc(=O)nc(O)c-2nc2cc(C)c(C)cc21
REMARK SMILES IDX 6 1 7 2 13 3 12 4 15 5 10 6 16 7 8 8 9 9 17 10 18 11 24 12
REMARK SMILES IDX 19 13 23 14 21 15 11 16 20 17 22 18 14 19 5 21 4 22 2 23
REMARK SMILES IDX 1 24 3 25
REMARK H PARENT 14 20
ROOT
ATOM      1  C   UNL     1       1.758   0.161  -0.608  1.00  0.00     0.166 C 
ENDROOT
BRANCH   1   2
ATOM      2  N   UNL     1       0.503   0.928  -0.434  1.00  0.00    -0.319 N 
ATOM      3  C   UNL     1      -0.578   4.469  -0.245  1.00  0.00     0.246 A 
ATOM      4  N   UNL     1       0.643   5.059  -0.346  1.00  0.00    -0.153 NA
ATOM      5  C   UNL     1      -0.671   3.081  -0.263  1.00  0.00     0.169 A 
ATOM      6  C   UNL     1       1.788   4.331  -0.466  1.00  0.00     0.372 A 
ATOM      7  N   UNL     1      -1.851   2.438  -0.151  1.00  0.00    -0.237 NA
ATOM      8  C   UNL     1       0.565   2.299  -0.402  1.00  0.00     0.170 A 
ATOM      9  N   UNL     1       1.744   2.972  -0.493  1.00  0.00    -0.171 NA
ATOM     10  C   UNL     1      -1.911   1.083  -0.150  1.00  0.00     0.088 A 
ATOM     11  C   UNL     1      -3.158   0.469  -0.015  1.00  0.00     0.034 A 
ATOM     12  C   UNL     1      -0.726   0.303  -0.274  1.00  0.00     0.069 A 
ATOM     13  C   UNL     1      -3.276  -0.925   0.015  1.00  0.00    -0.046 A 
ATOM     14  C   UNL     1      -0.858  -1.105  -0.212  1.00  0.00     0.032 A 
ATOM     15  C   UNL     1      -2.112  -1.720  -0.063  1.00  0.00    -0.046 A 
ATOM     16  O   UNL     1       2.895   4.921  -0.553  1.00  0.00    -0.243 OA
ATOM     17  C   UNL     1      -4.641  -1.546   0.171  1.00  0.00     0.044 C 
ATOM     18  C   UNL     1      -2.195  -3.225  -0.011  1.00  0.00     0.044 C 
BRANCH   3  19
ATOM     19  O   UNL     1      -1.722   5.252  -0.121  1.00  0.00    -0.492 OA
ATOM     20  H   UNL     1      -1.662   6.263  -0.105  1.00  0.00     0.295 HD
ENDBRANCH   3  19
ENDBRANCH   1   2
BRANCH   1  21
ATOM     21  C   UNL     1       2.339  -0.240   0.751  1.00  0.00     0.254 C 
BRANCH  21  22
ATOM     22  O   UNL     1       3.559  -0.958   0.584  1.00  0.00    -0.464 OA
BRANCH  22  23
ATOM     23  C   UNL     1       3.615  -2.293   0.169  1.00  0.00     0.302 C 
ATOM     24  C   UNL     1       4.941  -2.952  -0.007  1.00  0.00     0.139 C 
ATOM     25  O   UNL     1       2.560  -2.960  -0.009  1.00  0.00    -0.253 OA
ENDBRANCH  22  23
ENDBRANCH  21  22
ENDBRANCH   1  21
TORSDOF 5
