REMARK SMILES O=C1OCC/C1=C/c1ccc2c(c1)OCO2
REMARK SMILES IDX 1 1 2 2 3 3 4 4 5 5 6 6 7 7 8 8 9 9 13 10 10 11 12 12 11 13
REMARK SMILES IDX 14 14 16 15 15 16
REMARK H PARENT
ROOT
ATOM      1  O   UNL     1       1.327   1.368   1.455  1.00  0.00    -0.247 OA
ATOM      2  C   UNL     1       2.271   0.845   0.807  1.00  0.00     0.334 C 
ATOM      3  O   UNL     1       3.596   1.145   1.036  1.00  0.00    -0.462 OA
ATOM      4  C   UNL     1       4.444   0.481   0.106  1.00  0.00     0.238 C 
ATOM      5  C   UNL     1       3.514  -0.294  -0.856  1.00  0.00     0.085 C 
ATOM      6  C   UNL     1       2.141  -0.064  -0.315  1.00  0.00     0.041 C 
ENDROOT
BRANCH   6   7
ATOM      7  C   UNL     1       1.026  -0.575  -0.860  1.00  0.00     0.019 C 
BRANCH   7   8
ATOM      8  C   UNL     1      -0.330  -0.406  -0.304  1.00  0.00    -0.021 A 
ATOM      9  C   UNL     1      -0.614  -0.741   1.046  1.00  0.00     0.012 A 
ATOM     10  C   UNL     1      -1.377   0.001  -1.157  1.00  0.00     0.058 A 
ATOM     11  C   UNL     1      -1.922  -0.623   1.551  1.00  0.00     0.051 A 
ATOM     12  C   UNL     1      -2.657   0.103  -0.619  1.00  0.00     0.166 A 
ATOM     13  C   UNL     1      -2.917  -0.193   0.679  1.00  0.00     0.165 A 
ATOM     14  O   UNL     1      -3.825   0.491  -1.246  1.00  0.00    -0.454 OA
ATOM     15  O   UNL     1      -4.262  -0.005   0.934  1.00  0.00    -0.454 OA
ATOM     16  C   UNL     1      -4.885   0.437  -0.281  1.00  0.00     0.468 C 
ENDBRANCH   7   8
ENDBRANCH   6   7
TORSDOF 2
