REMARK SMILES COc1cc(-c2ccc(NC(=O)NC3CC3)c(OC)c2)ccc1NC(=O)NC1CC1
REMARK SMILES IDX 3 1 4 2 5 3 21 4 22 5 23 6 2 7 1 8 24 9 25 10 27 11 26 13
REMARK SMILES IDX 28 15 29 16 30 17 6 18 7 19 20 20 8 21 17 22 9 23 18 24
REMARK SMILES IDX 19 25 10 26 11 27 13 28 12 30 14 32 15 33 16 34
REMARK H PARENT 24 12 27 14 10 29 13 31
ROOT
ATOM      1  C   UNL     1       2.910  -1.275  -0.727  1.00  0.00     0.143 A 
ATOM      2  C   UNL     1       1.509  -1.179  -0.831  1.00  0.00     0.057 A 
ATOM      3  C   UNL     1       0.800  -0.199  -0.117  1.00  0.00    -0.014 A 
ATOM      4  C   UNL     1       1.506   0.687   0.709  1.00  0.00     0.011 A 
ATOM      5  C   UNL     1       2.893   0.590   0.829  1.00  0.00     0.031 A 
ATOM      6  C   UNL     1       3.608  -0.379   0.104  1.00  0.00     0.085 A 
ENDROOT
BRANCH   1   7
ATOM      7  O   UNL     1       3.640  -2.238  -1.442  1.00  0.00    -0.495 OA
ATOM      8  C   UNL     1       3.068  -3.192  -2.331  1.00  0.00     0.278 C 
ENDBRANCH   1   7
BRANCH   6   9
ATOM      9  N   UNL     1       5.035  -0.509   0.252  1.00  0.00    -0.305 N 
ATOM     10  C   UNL     1       5.933   0.591   0.460  1.00  0.00     0.319 C 
ATOM     11  N   UNL     1       7.298   0.334   0.809  1.00  0.00    -0.335 N 
ATOM     12  H   UNL     1       5.459  -1.457   0.138  1.00  0.00     0.172 HD
ATOM     13  O   UNL     1       5.538   1.778   0.295  1.00  0.00    -0.248 OA
ATOM     14  H   UNL     1       7.634  -0.655   0.853  1.00  0.00     0.165 HD
BRANCH  11  15
ATOM     15  C   UNL     1       8.264   1.415   0.979  1.00  0.00     0.084 C 
ATOM     16  C   UNL     1       9.268   1.171   2.093  1.00  0.00     0.027 C 
ATOM     17  C   UNL     1       8.118   2.144   2.305  1.00  0.00     0.027 C 
ENDBRANCH  11  15
ENDBRANCH   6   9
BRANCH   3  18
ATOM     18  C   UNL     1      -0.677  -0.114  -0.223  1.00  0.00    -0.014 A 
ATOM     19  C   UNL     1      -1.458  -1.279  -0.184  1.00  0.00     0.011 A 
ATOM     20  C   UNL     1      -1.314   1.129  -0.378  1.00  0.00     0.057 A 
ATOM     21  C   UNL     1      -2.847  -1.207  -0.299  1.00  0.00     0.031 A 
ATOM     22  C   UNL     1      -2.716   1.211  -0.502  1.00  0.00     0.143 A 
ATOM     23  C   UNL     1      -3.487   0.034  -0.449  1.00  0.00     0.085 A 
BRANCH  22  24
ATOM     24  O   UNL     1      -3.374   2.440  -0.671  1.00  0.00    -0.495 OA
ATOM     25  C   UNL     1      -2.725   3.707  -0.718  1.00  0.00     0.278 C 
ENDBRANCH  22  24
BRANCH  23  26
ATOM     26  N   UNL     1      -4.914   0.104  -0.615  1.00  0.00    -0.305 N 
ATOM     27  C   UNL     1      -5.837  -0.748   0.080  1.00  0.00     0.319 C 
ATOM     28  N   UNL     1      -7.193  -0.837  -0.368  1.00  0.00    -0.335 N 
ATOM     29  H   UNL     1      -5.310   0.848  -1.232  1.00  0.00     0.172 HD
ATOM     30  O   UNL     1      -5.465  -1.393   1.099  1.00  0.00    -0.248 OA
ATOM     31  H   UNL     1      -7.467  -0.351  -1.252  1.00  0.00     0.165 HD
BRANCH  28  32
ATOM     32  C   UNL     1      -8.172  -1.658   0.341  1.00  0.00     0.084 C 
ATOM     33  C   UNL     1      -8.935  -0.893   1.409  1.00  0.00     0.027 C 
ATOM     34  C   UNL     1      -9.616  -1.250   0.094  1.00  0.00     0.027 C 
ENDBRANCH  28  32
ENDBRANCH  23  26
ENDBRANCH   3  18
TORSDOF 7
