REMARK SMILES CC(=O)Oc1c(C)c(OC(C)=O)c2c(c1C(C)=O)O[C@@H]1CC(O)=C(C(C)=O)C(=O)[C@@]21C
REMARK SMILES IDX 22 1 24 2 28 3 29 4 30 5 31 6 13 7 8 8 6 9 7 10 5 11 15 12
REMARK SMILES IDX 14 13 19 14 20 15 21 16 23 17 25 19 26 20 27 21 9 22 10 23
REMARK SMILES IDX 11 24 12 25 16 26 17 27 18 28 4 29 2 30 1 31 3 32
REMARK H PARENT 23 18
ROOT
ATOM      1  C   UNL     1      -4.332  -0.425  -0.806  1.00  0.00     0.110 C 
ATOM      2  C   UNL     1      -4.014   0.612   0.035  1.00  0.00     0.099 C 
ATOM      3  C   UNL     1      -2.574   0.897   0.372  1.00  0.00     0.184 C 
ATOM      4  O   UNL     1      -2.253   1.752   1.239  1.00  0.00    -0.293 OA
ATOM      5  C   UNL     1      -1.528   0.199  -0.451  1.00  0.00     0.101 C 
ATOM      6  C   UNL     1      -1.390   0.914  -1.819  1.00  0.00     0.029 C 
ATOM      7  C   UNL     1      -0.142  -0.065   0.072  1.00  0.00     0.056 A 
ATOM      8  C   UNL     1       0.804   0.818   0.599  1.00  0.00     0.145 A 
ATOM      9  C   UNL     1       2.119   0.338   0.826  1.00  0.00     0.036 A 
ATOM     10  C   UNL     1       3.154   1.216   1.482  1.00  0.00     0.052 C 
ATOM     11  C   UNL     1       2.489  -0.957   0.375  1.00  0.00     0.152 A 
ATOM     12  C   UNL     1       1.520  -1.819  -0.205  1.00  0.00     0.103 A 
ATOM     13  C   UNL     1       0.220  -1.329  -0.354  1.00  0.00     0.142 A 
ATOM     14  O   UNL     1      -0.862  -2.004  -0.912  1.00  0.00    -0.487 OA
ATOM     15  C   UNL     1      -2.012  -1.257  -0.551  1.00  0.00     0.199 C 
ATOM     16  C   UNL     1      -3.277  -1.370  -1.390  1.00  0.00     0.122 C 
ENDROOT
BRANCH   1  17
ATOM     17  O   UNL     1      -5.665  -0.657  -1.145  1.00  0.00    -0.511 OA
ATOM     18  H   UNL     1      -5.927  -1.417  -1.761  1.00  0.00     0.293 HD
ENDBRANCH   1  17
BRANCH   2  19
ATOM     19  C   UNL     1      -5.090   1.467   0.601  1.00  0.00     0.166 C 
ATOM     20  C   UNL     1      -5.030   1.977   2.008  1.00  0.00     0.094 C 
ATOM     21  O   UNL     1      -6.070   1.802  -0.119  1.00  0.00    -0.294 OA
ENDBRANCH   2  19
BRANCH   8  22
ATOM     22  O   UNL     1       0.434   2.137   0.881  1.00  0.00    -0.426 OA
BRANCH  22  23
ATOM     23  C   UNL     1       1.015   3.246   0.260  1.00  0.00     0.308 C 
ATOM     24  C   UNL     1       0.629   4.617   0.698  1.00  0.00     0.139 C 
ATOM     25  O   UNL     1       1.805   3.101  -0.713  1.00  0.00    -0.252 OA
ENDBRANCH  22  23
ENDBRANCH   8  22
BRANCH  12  26
ATOM     26  C   UNL     1       1.821  -3.214  -0.604  1.00  0.00     0.167 C 
ATOM     27  C   UNL     1       2.657  -4.117   0.250  1.00  0.00     0.094 C 
ATOM     28  O   UNL     1       1.339  -3.670  -1.675  1.00  0.00    -0.294 OA
ENDBRANCH  12  26
BRANCH  11  29
ATOM     29  O   UNL     1       3.827  -1.355   0.496  1.00  0.00    -0.425 OA
BRANCH  29  30
ATOM     30  C   UNL     1       4.639  -1.644  -0.605  1.00  0.00     0.308 C 
ATOM     31  C   UNL     1       6.025  -2.145  -0.384  1.00  0.00     0.139 C 
ATOM     32  O   UNL     1       4.229  -1.444  -1.781  1.00  0.00    -0.252 OA
ENDBRANCH  29  30
ENDBRANCH  11  29
TORSDOF 7
