REMARK SMILES Nc1ncncc1-c1ccc2ccccc2c1
REMARK SMILES IDX 2 1 3 2 4 3 5 4 6 5 7 6 1 7 8 10 9 11 17 12 10 13 16 14
REMARK SMILES IDX 11 15 15 16 12 17 14 18 13 19
REMARK H PARENT 1 8 1 9
ROOT
ATOM      1  C   UNL     1      -2.871  -0.544  -0.348  1.00  0.00     0.134 A 
ATOM      2  N   UNL     1      -4.223  -0.439  -0.250  1.00  0.00    -0.219 NA
ATOM      3  C   UNL     1      -4.828   0.758  -0.044  1.00  0.00     0.224 A 
ATOM      4  N   UNL     1      -4.083   1.887   0.060  1.00  0.00    -0.244 NA
ATOM      5  C   UNL     1      -2.730   1.840  -0.029  1.00  0.00     0.125 A 
ATOM      6  C   UNL     1      -2.075   0.616  -0.224  1.00  0.00     0.042 A 
ENDROOT
BRANCH   1   7
ATOM      7  N   UNL     1      -2.298  -1.827  -0.622  1.00  0.00    -0.383 N 
ATOM      8  H   UNL     1      -1.289  -1.946  -0.860  1.00  0.00     0.158 HD
ATOM      9  H   UNL     1      -2.911  -2.671  -0.663  1.00  0.00     0.158 HD
ENDBRANCH   1   7
BRANCH   6  10
ATOM     10  C   UNL     1      -0.596   0.580  -0.266  1.00  0.00    -0.013 A 
ATOM     11  C   UNL     1       0.102   1.375  -1.189  1.00  0.00     0.009 A 
ATOM     12  C   UNL     1       0.121  -0.214   0.644  1.00  0.00     0.017 A 
ATOM     13  C   UNL     1       1.498   1.363  -1.222  1.00  0.00     0.009 A 
ATOM     14  C   UNL     1       1.524  -0.234   0.617  1.00  0.00    -0.018 A 
ATOM     15  C   UNL     1       2.219   0.562  -0.326  1.00  0.00    -0.018 A 
ATOM     16  C   UNL     1       2.246  -1.032   1.518  1.00  0.00     0.009 A 
ATOM     17  C   UNL     1       3.622   0.542  -0.351  1.00  0.00     0.009 A 
ATOM     18  C   UNL     1       3.643  -1.043   1.482  1.00  0.00     0.001 A 
ATOM     19  C   UNL     1       4.329  -0.259   0.550  1.00  0.00     0.001 A 
ENDBRANCH   6  10
TORSDOF 2
