REMARK SMILES Cn1[nH]cc2c(=NCc3ccccc3)ncnc1-2
REMARK SMILES IDX 7 1 6 2 3 3 4 4 2 5 5 6 18 7 17 8 15 9 16 10 1 12 8 13 9 14
REMARK SMILES IDX 10 15 14 16 11 17 13 18 12 19
REMARK H PARENT 3 11
ROOT
ATOM      1  N   UNL     1       0.580  -0.577   0.680  1.00  0.00    -0.261 NA
ENDROOT
BRANCH   1   2
ATOM      2  C   UNL     1      -0.685  -0.675   0.974  1.00  0.00     0.162 A 
ATOM      3  N   UNL     1      -3.149   1.276  -0.838  1.00  0.00    -0.304 N 
ATOM      4  C   UNL     1      -1.835   0.966  -0.693  1.00  0.00     0.117 A 
ATOM      5  N   UNL     1      -3.886   0.577   0.019  1.00  0.00    -0.274 N 
ATOM      6  C   UNL     1      -1.712   0.023   0.321  1.00  0.00     0.081 A 
ATOM      7  C   UNL     1      -3.059  -0.184   0.747  1.00  0.00     0.161 A 
ATOM      8  N   UNL     1      -3.379  -1.017   1.761  1.00  0.00    -0.217 NA
ATOM      9  N   UNL     1      -1.059  -1.514   1.988  1.00  0.00    -0.217 NA
ATOM     10  C   UNL     1      -2.363  -1.687   2.379  1.00  0.00     0.226 A 
ATOM     11  H   UNL     1      -3.532   1.975  -1.513  1.00  0.00     0.187 HD
ATOM     12  C   UNL     1      -5.326   0.727   0.194  1.00  0.00     0.173 C 
ENDBRANCH   1   2
BRANCH   1  13
ATOM     13  C   UNL     1       1.194   0.249  -0.353  1.00  0.00     0.180 C 
BRANCH  13  14
ATOM     14  C   UNL     1       2.679   0.026  -0.342  1.00  0.00    -0.027 A 
ATOM     15  C   UNL     1       3.506   0.804   0.485  1.00  0.00     0.005 A 
ATOM     16  C   UNL     1       3.247  -1.003  -1.111  1.00  0.00     0.005 A 
ATOM     17  C   UNL     1       4.885   0.572   0.521  1.00  0.00     0.000 A 
ATOM     18  C   UNL     1       4.627  -1.232  -1.073  1.00  0.00     0.000 A 
ATOM     19  C   UNL     1       5.445  -0.443  -0.259  1.00  0.00     0.000 A 
ENDBRANCH  13  14
ENDBRANCH   1  13
TORSDOF 3
