REMARK SMILES CCn1c(C)nc2cc(C(N)=O)ccc21
REMARK SMILES IDX 3 1 4 2 5 3 6 4 7 5 8 6 9 7 13 8 14 9 15 10 2 11 1 12 10 13
REMARK SMILES IDX 11 14 12 15
REMARK H PARENT 11 16 11 17
ROOT
ATOM      1  N   UNL     1      -1.512  -0.172   0.070  1.00  0.00    -0.329 N 
ATOM      2  C   UNL     1      -1.699  -1.380  -0.528  1.00  0.00     0.106 A 
ATOM      3  C   UNL     1      -3.040  -1.959  -0.849  1.00  0.00     0.088 C 
ATOM      4  N   UNL     1      -0.538  -2.031  -0.804  1.00  0.00    -0.233 NA
ATOM      5  C   UNL     1       0.402  -1.172  -0.367  1.00  0.00     0.090 A 
ATOM      6  C   UNL     1       1.783  -1.333  -0.420  1.00  0.00     0.044 A 
ATOM      7  C   UNL     1       2.599  -0.287   0.076  1.00  0.00     0.041 A 
ATOM      8  C   UNL     1       1.986   0.876   0.620  1.00  0.00     0.016 A 
ATOM      9  C   UNL     1       0.585   1.002   0.656  1.00  0.00     0.029 A 
ATOM     10  C   UNL     1      -0.175  -0.052   0.151  1.00  0.00     0.068 A 
ENDROOT
BRANCH   1  11
ATOM     11  C   UNL     1      -2.526   0.815   0.449  1.00  0.00     0.120 C 
ATOM     12  C   UNL     1      -2.731   1.822  -0.677  1.00  0.00     0.028 C 
ENDBRANCH   1  11
BRANCH   7  13
ATOM     13  C   UNL     1       4.075  -0.428   0.039  1.00  0.00     0.248 C 
ATOM     14  N   UNL     1       4.937   0.713   0.075  1.00  0.00    -0.366 N 
ATOM     15  O   UNL     1       4.589  -1.576  -0.041  1.00  0.00    -0.270 OA
ATOM     16  H   UNL     1       4.569   1.684  -0.021  1.00  0.00     0.159 HD
ATOM     17  H   UNL     1       5.972   0.581   0.108  1.00  0.00     0.159 HD
ENDBRANCH   7  13
TORSDOF 2
