REMARK SMILES COc1ccc(NC(=O)N2CCN(C(=O)Nc3ccc(OC)cc3)CC2)cc1
REMARK SMILES IDX 7 1 8 2 9 3 10 4 11 5 12 6 13 7 14 8 15 9 16 10 25 11 26 12
REMARK SMILES IDX 6 15 3 16 4 17 28 18 5 19 27 20 2 21 1 22 17 23 18 24 24 25
REMARK SMILES IDX 19 26 23 27 20 28 21 29 22 30
REMARK H PARENT 7 13 16 14
ROOT
ATOM      1  N   UNL     1      -1.877  -3.060  -0.252  1.00  0.00    -0.308 N 
ATOM      2  C   UNL     1      -1.961  -1.783   0.403  1.00  0.00     0.321 C 
ATOM      3  O   UNL     1      -2.962  -1.508   1.120  1.00  0.00    -0.248 OA
ATOM      4  N   UNL     1      -0.878  -0.839   0.302  1.00  0.00    -0.321 N 
ATOM      5  C   UNL     1      -0.530   0.036   1.423  1.00  0.00     0.143 C 
ATOM      6  C   UNL     1       0.873  -0.320   1.921  1.00  0.00     0.143 C 
ATOM      7  N   UNL     1       1.819  -0.410   0.795  1.00  0.00    -0.321 N 
ATOM      8  C   UNL     1       3.195  -0.022   0.992  1.00  0.00     0.321 C 
ATOM      9  O   UNL     1       3.473   0.896   1.811  1.00  0.00    -0.248 OA
ATOM     10  N   UNL     1       4.254  -0.701   0.295  1.00  0.00    -0.308 N 
ATOM     11  C   UNL     1       1.436  -1.200  -0.387  1.00  0.00     0.143 C 
ATOM     12  C   UNL     1       0.028  -0.821  -0.848  1.00  0.00     0.143 C 
ATOM     13  H   UNL     1      -0.924  -3.430  -0.469  1.00  0.00     0.171 HD
ATOM     14  H   UNL     1       4.087  -1.687  -0.004  1.00  0.00     0.171 HD
ENDROOT
BRANCH   1  15
ATOM     15  C   UNL     1      -3.000  -3.935  -0.457  1.00  0.00     0.043 A 
ATOM     16  C   UNL     1      -5.163  -5.688  -0.908  1.00  0.00     0.119 A 
ATOM     17  C   UNL     1      -5.363  -4.303  -0.907  1.00  0.00     0.048 A 
ATOM     18  C   UNL     1      -3.867  -6.195  -0.696  1.00  0.00     0.048 A 
ATOM     19  C   UNL     1      -4.292  -3.430  -0.691  1.00  0.00     0.030 A 
ATOM     20  C   UNL     1      -2.796  -5.322  -0.480  1.00  0.00     0.030 A 
BRANCH  16  21
ATOM     21  O   UNL     1      -6.271  -6.522  -1.126  1.00  0.00    -0.497 OA
ATOM     22  C   UNL     1      -6.209  -7.944  -1.168  1.00  0.00     0.278 C 
ENDBRANCH  16  21
ENDBRANCH   1  15
BRANCH  10  23
ATOM     23  C   UNL     1       5.577  -0.161   0.126  1.00  0.00     0.043 A 
ATOM     24  C   UNL     1       6.670  -1.033   0.026  1.00  0.00     0.030 A 
ATOM     25  C   UNL     1       5.793   1.223  -0.002  1.00  0.00     0.030 A 
ATOM     26  C   UNL     1       7.962  -0.534  -0.161  1.00  0.00     0.048 A 
ATOM     27  C   UNL     1       7.086   1.723  -0.189  1.00  0.00     0.048 A 
ATOM     28  C   UNL     1       8.183   0.844  -0.266  1.00  0.00     0.119 A 
BRANCH  28  29
ATOM     29  O   UNL     1       9.499   1.296  -0.452  1.00  0.00    -0.497 OA
ATOM     30  C   UNL     1       9.870   2.666  -0.570  1.00  0.00     0.278 C 
ENDBRANCH  28  29
ENDBRANCH  10  23
TORSDOF 4
