REMARK SMILES CCOc1nc(OCC)c2cnn(C)c2n1
REMARK SMILES IDX 4 1 5 2 6 3 10 4 11 5 12 6 13 7 14 8 15 9 16 10 3 11 2 12
REMARK SMILES IDX 1 13 7 14 8 15 9 16
REMARK H PARENT
ROOT
ATOM      1  C   UNL     1       1.174   0.488  -0.280  1.00  0.00     0.321 A 
ATOM      2  N   UNL     1       0.231  -0.499  -0.112  1.00  0.00    -0.158 NA
ATOM      3  C   UNL     1      -1.059  -0.208   0.239  1.00  0.00     0.230 A 
ATOM      4  C   UNL     1      -1.385   1.126   0.419  1.00  0.00     0.101 A 
ATOM      5  C   UNL     1      -2.535   1.796   0.781  1.00  0.00     0.151 A 
ATOM      6  N   UNL     1      -2.257   3.125   0.818  1.00  0.00    -0.179 NA
ATOM      7  N   UNL     1      -0.982   3.293   0.480  1.00  0.00    -0.250 N 
ATOM      8  C   UNL     1      -0.294   4.577   0.465  1.00  0.00     0.176 C 
ATOM      9  C   UNL     1      -0.445   2.086   0.247  1.00  0.00     0.168 A 
ATOM     10  N   UNL     1       0.834   1.800  -0.098  1.00  0.00    -0.175 NA
ENDROOT
BRANCH   1  11
ATOM     11  O   UNL     1       2.486   0.167  -0.643  1.00  0.00    -0.464 OA
BRANCH  11  12
ATOM     12  C   UNL     1       2.949  -1.170  -0.825  1.00  0.00     0.230 C 
ATOM     13  C   UNL     1       3.163  -1.856   0.520  1.00  0.00     0.049 C 
ENDBRANCH  11  12
ENDBRANCH   1  11
BRANCH   3  14
ATOM     14  O   UNL     1      -2.016  -1.212   0.420  1.00  0.00    -0.477 OA
BRANCH  14  15
ATOM     15  C   UNL     1      -1.747  -2.598   0.218  1.00  0.00     0.228 C 
ATOM     16  C   UNL     1      -1.689  -2.925  -1.270  1.00  0.00     0.049 C 
ENDBRANCH  14  15
ENDBRANCH   3  14
TORSDOF 4
