REMARK SMILES O=C(Nc1cccnc1)c1cccc([N+](=O)[O-])c1
REMARK SMILES IDX 10 1 11 2 12 3 13 4 14 5 18 6 2 7 3 8 1 9 4 11 5 12 9 13
REMARK SMILES IDX 6 14 8 15 7 16 15 17 16 18 17 19
REMARK H PARENT 3 10
ROOT
ATOM      1  C   UNL     1       1.307   0.059  -0.098  1.00  0.00     0.046 A 
ATOM      2  C   UNL     1       1.548   1.363  -0.564  1.00  0.00     0.014 A 
ATOM      3  C   UNL     1       2.854   1.805  -0.783  1.00  0.00     0.008 A 
ATOM      4  C   UNL     1       3.935   0.955  -0.545  1.00  0.00     0.085 A 
ATOM      5  C   UNL     1       3.722  -0.356  -0.088  1.00  0.00     0.270 A 
ATOM      6  C   UNL     1       2.402  -0.797   0.130  1.00  0.00     0.099 A 
ENDROOT
BRANCH   1   7
ATOM      7  C   UNL     1      -0.077  -0.423   0.131  1.00  0.00     0.255 C 
ATOM      8  N   UNL     1      -1.158   0.505   0.321  1.00  0.00    -0.321 N 
ATOM      9  O   UNL     1      -0.299  -1.663   0.202  1.00  0.00    -0.269 OA
ATOM     10  H   UNL     1      -0.934   1.445   0.719  1.00  0.00     0.170 HD
BRANCH   8  11
ATOM     11  C   UNL     1      -2.544   0.166   0.139  1.00  0.00     0.059 A 
ATOM     12  C   UNL     1      -2.953  -0.796  -0.800  1.00  0.00     0.029 A 
ATOM     13  C   UNL     1      -3.528   0.846   0.872  1.00  0.00     0.137 A 
ATOM     14  C   UNL     1      -4.311  -1.080  -0.964  1.00  0.00     0.022 A 
ATOM     15  N   UNL     1      -4.844   0.552   0.694  1.00  0.00    -0.263 NA
ATOM     16  C   UNL     1      -5.251  -0.391  -0.197  1.00  0.00     0.111 A 
ENDBRANCH   8  11
ENDBRANCH   1   7
BRANCH   5  17
ATOM     17  N   UNL     1       4.839  -1.232   0.152  1.00  0.00     0.062 N 
ATOM     18  O   UNL     1       4.658  -2.400   0.557  1.00  0.00    -0.258 OA
ATOM     19  O   UNL     1       6.127  -0.797  -0.061  1.00  0.00    -0.258 OA
ENDBRANCH   5  17
TORSDOF 3
