REMARK SMILES C=C(O)c1c(OC(C)=O)c(C)c(OC(C)=O)c2c1O[C@@H]1CC(=O)C(=C(C)O)C(=O)[C@]21C
REMARK SMILES IDX 24 1 22 2 23 3 21 4 20 5 19 6 18 7 4 8 5 9 10 10 11 11 12 12
REMARK SMILES IDX 17 13 30 14 31 15 28 16 29 17 25 18 26 19 27 20 13 22 14 23
REMARK SMILES IDX 15 24 16 25 2 26 1 27 3 28 6 30 7 31 8 32 9 33
REMARK H PARENT 27 21 3 29
ROOT
ATOM      1  C   UNL     1       3.010  -0.239  -0.094  1.00  0.00     0.099 C 
ATOM      2  C   UNL     1       3.058  -1.618  -0.640  1.00  0.00     0.173 C 
ATOM      3  O   UNL     1       3.304  -2.621   0.082  1.00  0.00    -0.294 OA
ATOM      4  C   UNL     1       2.773  -1.811  -2.096  1.00  0.00     0.128 C 
ATOM      5  C   UNL     1       1.445  -1.142  -2.480  1.00  0.00     0.199 C 
ATOM      6  O   UNL     1       0.355  -1.882  -1.936  1.00  0.00    -0.487 OA
ATOM      7  C   UNL     1      -0.492  -1.064  -1.220  1.00  0.00     0.142 A 
ATOM      8  C   UNL     1      -1.657  -1.462  -0.553  1.00  0.00     0.101 A 
ATOM      9  C   UNL     1      -2.363  -0.487   0.189  1.00  0.00     0.152 A 
ATOM     10  C   UNL     1      -1.918   0.865   0.201  1.00  0.00     0.036 A 
ATOM     11  C   UNL     1      -2.748   1.933   0.868  1.00  0.00     0.052 C 
ATOM     12  C   UNL     1      -0.708   1.210  -0.453  1.00  0.00     0.145 A 
ATOM     13  C   UNL     1      -0.036   0.225  -1.187  1.00  0.00     0.056 A 
ATOM     14  C   UNL     1       1.262   0.333  -1.942  1.00  0.00     0.101 C 
ATOM     15  C   UNL     1       1.121   1.315  -3.123  1.00  0.00     0.029 C 
ATOM     16  C   UNL     1       2.365   0.763  -0.981  1.00  0.00     0.184 C 
ATOM     17  O   UNL     1       2.712   1.976  -0.923  1.00  0.00    -0.293 OA
ENDROOT
BRANCH   1  18
ATOM     18  C   UNL     1       3.509   0.118   1.117  1.00  0.00     0.104 C 
ATOM     19  C   UNL     1       4.243  -0.844   2.014  1.00  0.00     0.087 C 
BRANCH  18  20
ATOM     20  O   UNL     1       3.328   1.425   1.575  1.00  0.00    -0.512 OA
ATOM     21  H   UNL     1       3.669   1.730   2.479  1.00  0.00     0.293 HD
ENDBRANCH  18  20
ENDBRANCH   1  18
BRANCH  12  22
ATOM     22  O   UNL     1      -0.181   2.505  -0.398  1.00  0.00    -0.426 OA
BRANCH  22  23
ATOM     23  C   UNL     1       0.218   3.119   0.794  1.00  0.00     0.308 C 
ATOM     24  C   UNL     1       0.640   4.548   0.778  1.00  0.00     0.139 C 
ATOM     25  O   UNL     1       0.223   2.479   1.881  1.00  0.00    -0.252 OA
ENDBRANCH  22  23
ENDBRANCH  12  22
BRANCH   8  26
ATOM     26  C   UNL     1      -2.112  -2.874  -0.576  1.00  0.00     0.123 C 
ATOM     27  C   UNL     1      -2.095  -3.592  -1.703  1.00  0.00     0.059 C 
BRANCH  26  28
ATOM     28  O   UNL     1      -2.582  -3.452   0.605  1.00  0.00    -0.508 OA
ATOM     29  H   UNL     1      -2.912  -4.409   0.641  1.00  0.00     0.293 HD
ENDBRANCH  26  28
ENDBRANCH   8  26
BRANCH   9  30
ATOM     30  O   UNL     1      -3.527  -0.866   0.872  1.00  0.00    -0.425 OA
BRANCH  30  31
ATOM     31  C   UNL     1      -3.667  -0.763   2.260  1.00  0.00     0.308 C 
ATOM     32  C   UNL     1      -4.984  -1.071   2.887  1.00  0.00     0.139 C 
ATOM     33  O   UNL     1      -2.677  -0.484   2.990  1.00  0.00    -0.252 OA
ENDBRANCH  30  31
ENDBRANCH   9  30
TORSDOF 8
