REMARK SMILES Cn1c(=O)c2c(nc(N3CCCCC3)n2C)n(C)c1=O
REMARK SMILES IDX 1 1 2 2 3 3 4 4 5 5 6 6 7 7 8 8 15 9 16 10 17 11 18 12 19 13
REMARK SMILES IDX 20 14 9 15 10 16 14 17 11 18 13 19 12 20
REMARK H PARENT
ROOT
ATOM      1  C   UNL     1      -0.309  -3.898   5.680  1.00  0.00     0.159 C 
ATOM      2  N   UNL     1       0.004  -3.373   4.340  1.00  0.00    -0.261 N 
ATOM      3  C   UNL     1       0.943  -2.377   4.197  1.00  0.00     0.282 A 
ATOM      4  O   UNL     1       1.524  -1.878   5.199  1.00  0.00    -0.267 OA
ATOM      5  C   UNL     1       1.241  -1.933   2.914  1.00  0.00     0.153 A 
ATOM      6  C   UNL     1       0.620  -2.477   1.840  1.00  0.00     0.170 A 
ATOM      7  N   UNL     1       1.061  -1.920   0.695  1.00  0.00    -0.194 NA
ATOM      8  C   UNL     1       1.968  -1.010   1.140  1.00  0.00     0.207 A 
ATOM      9  N   UNL     1       2.116  -1.002   2.492  1.00  0.00    -0.307 N 
ATOM     10  C   UNL     1       3.053  -0.215   3.294  1.00  0.00     0.154 C 
ATOM     11  N   UNL     1      -0.305  -3.467   1.959  1.00  0.00    -0.279 N 
ATOM     12  C   UNL     1      -0.916  -4.071   0.767  1.00  0.00     0.157 C 
ATOM     13  C   UNL     1      -0.591  -3.937   3.223  1.00  0.00     0.332 A 
ATOM     14  O   UNL     1      -1.401  -4.897   3.361  1.00  0.00    -0.247 OA
ENDROOT
BRANCH   8  15
ATOM     15  N   UNL     1       2.694  -0.150   0.251  1.00  0.00    -0.342 N 
ATOM     16  C   UNL     1       2.481   1.300   0.328  1.00  0.00     0.119 C 
ATOM     17  C   UNL     1       3.214  -0.703  -1.004  1.00  0.00     0.119 C 
ATOM     18  C   UNL     1       3.756   2.045  -0.079  1.00  0.00     0.022 C 
ATOM     19  C   UNL     1       4.489   0.037  -1.420  1.00  0.00     0.022 C 
ATOM     20  C   UNL     1       4.261   1.553  -1.440  1.00  0.00     0.004 C 
ENDBRANCH   8  15
TORSDOF 1
