REMARK SMILES CC(=O)Oc1c(C)c(OC(C)=O)c2c(c1C(C)=O)O[C@@H]1CC(=O)C(C(C)=O)=C(O)[C@@]21C
REMARK SMILES IDX 5 1 6 2 7 3 8 4 13 5 14 6 15 7 19 8 20 9 21 10 22 11 23 12
REMARK SMILES IDX 24 13 28 14 30 15 31 16 4 17 2 18 1 19 3 20 16 21 17 22
REMARK SMILES IDX 18 23 9 24 10 25 11 26 12 27 29 28 25 30 26 31 27 32
REMARK H PARENT 29 29
ROOT
ATOM      1  C   UNL     1      -2.378   0.339  -1.083  1.00  0.00     0.152 A 
ATOM      2  C   UNL     1      -1.969   0.718   0.229  1.00  0.00     0.036 A 
ATOM      3  C   UNL     1      -2.952   1.355   1.180  1.00  0.00     0.052 C 
ATOM      4  C   UNL     1      -0.622   0.526   0.629  1.00  0.00     0.145 A 
ATOM      5  C   UNL     1       0.321   0.173  -0.344  1.00  0.00     0.055 A 
ATOM      6  C   UNL     1      -0.093  -0.231  -1.601  1.00  0.00     0.142 A 
ATOM      7  C   UNL     1      -1.428  -0.159  -2.010  1.00  0.00     0.103 A 
ATOM      8  O   UNL     1       0.961  -0.751  -2.343  1.00  0.00    -0.487 OA
ATOM      9  C   UNL     1       2.148  -0.389  -1.662  1.00  0.00     0.199 C 
ATOM     10  C   UNL     1       3.397  -1.242  -1.852  1.00  0.00     0.128 C 
ATOM     11  C   UNL     1       4.456  -0.730  -0.884  1.00  0.00     0.173 C 
ATOM     12  O   UNL     1       5.628  -1.183  -0.980  1.00  0.00    -0.294 OA
ATOM     13  C   UNL     1       4.128   0.291   0.184  1.00  0.00     0.099 C 
ATOM     14  C   UNL     1       2.824   0.594   0.451  1.00  0.00     0.121 C 
ATOM     15  C   UNL     1       1.750  -0.284  -0.173  1.00  0.00     0.095 C 
ATOM     16  C   UNL     1       1.707  -1.653   0.561  1.00  0.00     0.029 C 
ENDROOT
BRANCH   1  17
ATOM     17  O   UNL     1      -3.711   0.496  -1.484  1.00  0.00    -0.425 OA
BRANCH  17  18
ATOM     18  C   UNL     1      -4.780  -0.176  -0.880  1.00  0.00     0.308 C 
ATOM     19  C   UNL     1      -6.174   0.149  -1.292  1.00  0.00     0.139 C 
ATOM     20  O   UNL     1      -4.574  -1.105  -0.052  1.00  0.00    -0.252 OA
ENDBRANCH  17  18
ENDBRANCH   1  17
BRANCH   7  21
ATOM     21  C   UNL     1      -1.797  -0.595  -3.381  1.00  0.00     0.167 C 
ATOM     22  C   UNL     1      -3.104  -1.262  -3.682  1.00  0.00     0.094 C 
ATOM     23  O   UNL     1      -0.990  -0.401  -4.330  1.00  0.00    -0.294 OA
ENDBRANCH   7  21
BRANCH   4  24
ATOM     24  O   UNL     1      -0.218   0.674   1.962  1.00  0.00    -0.426 OA
BRANCH  24  25
ATOM     25  C   UNL     1      -0.783  -0.037   3.026  1.00  0.00     0.308 C 
ATOM     26  C   UNL     1      -0.408   0.313   4.425  1.00  0.00     0.139 C 
ATOM     27  O   UNL     1      -1.587  -0.986   2.816  1.00  0.00    -0.252 OA
ENDBRANCH  24  25
ENDBRANCH   4  24
BRANCH  14  28
ATOM     28  O   UNL     1       2.506   1.703   1.236  1.00  0.00    -0.510 OA
ATOM     29  H   UNL     1       1.578   2.095   1.276  1.00  0.00     0.293 HD
ENDBRANCH  14  28
BRANCH  13  30
ATOM     30  C   UNL     1       5.244   1.012   0.849  1.00  0.00     0.166 C 
ATOM     31  C   UNL     1       5.167   1.450   2.280  1.00  0.00     0.094 C 
ATOM     32  O   UNL     1       6.291   1.269   0.196  1.00  0.00    -0.294 OA
ENDBRANCH  13  30
TORSDOF 7
