REMARK SMILES O=c1cc(-c2ccccc2)oc2ccc(O)cc12
REMARK SMILES IDX 1 1 2 2 3 3 4 4 11 5 12 6 13 7 14 8 15 9 17 10 18 11 5 12
REMARK SMILES IDX 6 13 10 14 7 15 9 16 8 17 16 18
REMARK H PARENT 16 19
ROOT
ATOM      1  O   UNL     1       1.517   1.782   2.549  1.00  0.00    -0.289 OA
ATOM      2  C   UNL     1       1.123   1.105   1.561  1.00  0.00     0.193 A 
ATOM      3  C   UNL     1      -0.245   0.968   1.322  1.00  0.00     0.100 A 
ATOM      4  C   UNL     1      -0.681   0.211   0.219  1.00  0.00     0.138 A 
ATOM      5  O   UNL     1       0.218  -0.375  -0.571  1.00  0.00    -0.456 OA
ATOM      6  C   UNL     1       1.530  -0.273  -0.381  1.00  0.00     0.138 A 
ATOM      7  C   UNL     1       2.409  -0.915  -1.259  1.00  0.00     0.052 A 
ATOM      8  C   UNL     1       3.790  -0.813  -1.071  1.00  0.00     0.050 A 
ATOM      9  C   UNL     1       4.303  -0.068  -0.000  1.00  0.00     0.116 A 
ATOM     10  C   UNL     1       3.430   0.578   0.883  1.00  0.00     0.062 A 
ATOM     11  C   UNL     1       2.039   0.481   0.700  1.00  0.00     0.068 A 
ENDROOT
BRANCH   4  12
ATOM     12  C   UNL     1      -2.123   0.029  -0.085  1.00  0.00     0.017 A 
ATOM     13  C   UNL     1      -3.086   0.990   0.287  1.00  0.00     0.012 A 
ATOM     14  C   UNL     1      -2.544  -1.114  -0.789  1.00  0.00     0.012 A 
ATOM     15  C   UNL     1      -4.436   0.795  -0.022  1.00  0.00     0.001 A 
ATOM     16  C   UNL     1      -3.895  -1.303  -1.095  1.00  0.00     0.001 A 
ATOM     17  C   UNL     1      -4.841  -0.351  -0.709  1.00  0.00     0.000 A 
ENDBRANCH   4  12
BRANCH   9  18
ATOM     18  O   UNL     1       5.678   0.038   0.194  1.00  0.00    -0.508 OA
ATOM     19  H   UNL     1       6.338  -0.416  -0.427  1.00  0.00     0.293 HD
ENDBRANCH   9  18
TORSDOF 2
