REMARK SMILES Cc1cc(=O)c2cc3nc(-c4cccnc4)oc3c(Br)c2o1
REMARK SMILES IDX 1 1 2 2 3 3 4 4 5 5 6 6 7 7 8 8 9 9 10 10 17 11 18 12 19 13
REMARK SMILES IDX 20 14 21 15 22 16 11 17 12 18 16 19 13 20 15 21 14 22
REMARK H PARENT
ROOT
ATOM      1  C   UNL     1      -5.925   0.365  -0.713  1.00  0.00     0.088 C 
ATOM      2  C   UNL     1      -4.583  -0.104  -0.252  1.00  0.00     0.105 A 
ATOM      3  C   UNL     1      -4.479  -1.204   0.608  1.00  0.00     0.094 A 
ATOM      4  C   UNL     1      -3.217  -1.627   1.027  1.00  0.00     0.193 A 
ATOM      5  O   UNL     1      -3.118  -2.617   1.801  1.00  0.00    -0.289 OA
ATOM      6  C   UNL     1      -2.077  -0.942   0.579  1.00  0.00     0.068 A 
ATOM      7  C   UNL     1      -0.771  -1.324   0.970  1.00  0.00     0.048 A 
ATOM      8  C   UNL     1       0.296  -0.582   0.473  1.00  0.00     0.112 A 
ATOM      9  N   UNL     1       1.606  -0.765   0.709  1.00  0.00    -0.209 NA
ATOM     10  C   UNL     1       2.170   0.233  -0.023  1.00  0.00     0.228 A 
ATOM     11  O   UNL     1       1.282   0.977  -0.663  1.00  0.00    -0.435 OA
ATOM     12  C   UNL     1       0.114   0.477  -0.361  1.00  0.00     0.173 A 
ATOM     13  C   UNL     1      -1.149   0.893  -0.775  1.00  0.00     0.106 A 
ATOM     14  Br  UNL     1      -1.347   2.390  -1.950  1.00  0.00    -0.043 Br
ATOM     15  C   UNL     1      -2.263   0.172  -0.298  1.00  0.00     0.156 A 
ATOM     16  O   UNL     1      -3.490   0.532  -0.666  1.00  0.00    -0.460 OA
ENDROOT
BRANCH  10  17
ATOM     17  C   UNL     1       3.626   0.466  -0.097  1.00  0.00     0.055 A 
ATOM     18  C   UNL     1       4.526  -0.354   0.603  1.00  0.00     0.017 A 
ATOM     19  C   UNL     1       4.141   1.516  -0.874  1.00  0.00     0.124 A 
ATOM     20  C   UNL     1       5.899  -0.117   0.519  1.00  0.00     0.021 A 
ATOM     21  N   UNL     1       5.484   1.726  -0.939  1.00  0.00    -0.264 NA
ATOM     22  C   UNL     1       6.364   0.940  -0.266  1.00  0.00     0.111 A 
ENDBRANCH  10  17
TORSDOF 1
