REMARK SMILES Cc1ccc(-c2cc(C(=O)[O-])c3ccccc3n2)c(C)c1
REMARK SMILES IDX 8 1 7 2 12 3 6 4 13 5 17 6 18 7 14 8 16 9 15 10 9 11 10 12
REMARK SMILES IDX 11 13 5 14 4 15 19 16 3 17 21 18 2 19 20 20 1 21
REMARK H PARENT
ROOT
ATOM      1  C   UNL     1      -2.286  -1.128  -1.173  1.00  0.00     0.009 A 
ATOM      2  C   UNL     1      -0.883  -1.153  -1.108  1.00  0.00     0.039 A 
ATOM      3  C   UNL     1      -2.994  -0.194  -0.371  1.00  0.00     0.009 A 
ATOM      4  C   UNL     1      -0.197  -0.298  -0.236  1.00  0.00     0.072 A 
ATOM      5  C   UNL     1      -4.395  -0.028  -0.434  1.00  0.00     0.011 A 
ATOM      6  C   UNL     1      -2.254   0.641   0.506  1.00  0.00     0.072 A 
ATOM      7  N   UNL     1      -0.900   0.560   0.548  1.00  0.00    -0.248 NA
ATOM      8  C   UNL     1      -5.037   0.904   0.386  1.00  0.00     0.001 A 
ATOM      9  C   UNL     1      -2.911   1.567   1.324  1.00  0.00     0.029 A 
ATOM     10  C   UNL     1      -4.299   1.694   1.268  1.00  0.00     0.002 A 
ENDROOT
BRANCH   1  11
ATOM     11  C   UNL     1      -2.950  -2.107  -2.064  1.00  0.00     0.072 C 
ATOM     12  O   UNL     1      -4.013  -2.684  -1.713  1.00  0.00    -0.545 OA
ATOM     13  O   UNL     1      -2.360  -2.458  -3.272  1.00  0.00    -0.545 OA
ENDBRANCH   1  11
BRANCH   4  14
ATOM     14  C   UNL     1       1.282  -0.338  -0.137  1.00  0.00     0.003 A 
ATOM     15  C   UNL     1       1.923  -1.585  -0.021  1.00  0.00     0.011 A 
ATOM     16  C   UNL     1       2.067   0.844  -0.132  1.00  0.00    -0.041 A 
ATOM     17  C   UNL     1       3.310  -1.666   0.109  1.00  0.00     0.004 A 
ATOM     18  C   UNL     1       3.462   0.747   0.016  1.00  0.00     0.007 A 
ATOM     19  C   UNL     1       4.088  -0.503   0.116  1.00  0.00    -0.051 A 
ATOM     20  C   UNL     1       1.446   2.211  -0.270  1.00  0.00     0.045 C 
ATOM     21  C   UNL     1       5.574  -0.590   0.304  1.00  0.00     0.044 C 
ENDBRANCH   4  14
TORSDOF 2
