REMARK SMILES Oc1cccc2cnccc12
REMARK SMILES IDX 1 1 2 3 3 4 11 5 4 6 10 7 6 8 5 9 9 10 7 11 8 12
REMARK H PARENT 1 2
ROOT
ATOM      1  O   UNL     1      -2.069   1.851   0.072  1.00  0.00    -0.507 OA
ATOM      2  H   UNL     1      -1.629   2.739  -0.119  1.00  0.00     0.293 HD
ENDROOT
BRANCH   1   3
ATOM      3  C   UNL     1      -1.394   0.628   0.134  1.00  0.00     0.123 A 
ATOM      4  C   UNL     1      -2.158  -0.512   0.411  1.00  0.00     0.047 A 
ATOM      5  C   UNL     1       0.006   0.501  -0.070  1.00  0.00     0.027 A 
ATOM      6  C   UNL     1      -1.562  -1.771   0.490  1.00  0.00     0.005 A 
ATOM      7  C   UNL     1       0.838   1.603  -0.353  1.00  0.00     0.032 A 
ATOM      8  C   UNL     1       0.599  -0.786   0.013  1.00  0.00     0.004 A 
ATOM      9  C   UNL     1      -0.190  -1.910   0.293  1.00  0.00     0.010 A 
ATOM     10  C   UNL     1       2.208   1.409  -0.543  1.00  0.00     0.112 A 
ATOM     11  C   UNL     1       1.980  -0.924  -0.186  1.00  0.00     0.119 A 
ATOM     12  N   UNL     1       2.744   0.165  -0.456  1.00  0.00    -0.264 NA
ENDBRANCH   1   3
TORSDOF 1
