REMARK SMILES Sc1ncnc2sc(Nc3ccccc3)nc12
REMARK SMILES IDX 2 1 3 2 4 3 5 4 6 5 7 6 8 7 16 8 17 9 1 10 9 12 10 14 11 15
REMARK SMILES IDX 15 16 12 17 14 18 13 19
REMARK H PARENT 1 11 9 13
ROOT
ATOM      1  C   UNL     1       2.895  -0.307  -1.686  1.00  0.00     0.124 A 
ATOM      2  N   UNL     1       4.232  -0.558  -1.776  1.00  0.00    -0.228 NA
ATOM      3  C   UNL     1       4.945  -1.022  -0.704  1.00  0.00     0.224 A 
ATOM      4  N   UNL     1       4.328  -1.246   0.492  1.00  0.00    -0.224 NA
ATOM      5  C   UNL     1       3.001  -0.998   0.592  1.00  0.00     0.149 A 
ATOM      6  S   UNL     1       2.021  -1.196   1.938  1.00  0.00    -0.076 S 
ATOM      7  C   UNL     1       0.660  -0.648   1.081  1.00  0.00     0.189 A 
ATOM      8  N   UNL     1       0.940  -0.338  -0.211  1.00  0.00    -0.215 NA
ATOM      9  C   UNL     1       2.257  -0.532  -0.469  1.00  0.00     0.134 A 
ENDROOT
BRANCH   1  10
ATOM     10  S   UNL     1       1.998   0.300  -3.111  1.00  0.00    -0.121 SA
ATOM     11  H   UNL     1       2.240   1.641  -2.758  1.00  0.00     0.110 HD
ENDBRANCH   1  10
BRANCH   7  12
ATOM     12  N   UNL     1      -0.657  -0.591   1.644  1.00  0.00    -0.331 N 
ATOM     13  H   UNL     1      -0.819  -1.101   2.542  1.00  0.00     0.169 HD
BRANCH  12  14
ATOM     14  C   UNL     1      -1.785   0.014   0.990  1.00  0.00     0.040 A 
ATOM     15  C   UNL     1      -3.066  -0.524   1.190  1.00  0.00     0.026 A 
ATOM     16  C   UNL     1      -1.643   1.170   0.199  1.00  0.00     0.026 A 
ATOM     17  C   UNL     1      -4.182   0.058   0.580  1.00  0.00     0.002 A 
ATOM     18  C   UNL     1      -2.761   1.750  -0.409  1.00  0.00     0.002 A 
ATOM     19  C   UNL     1      -4.029   1.192  -0.223  1.00  0.00     0.000 A 
ENDBRANCH  12  14
ENDBRANCH   7  12
TORSDOF 3
