REMARK SMILES CSC(=O)NC(=O)NC(=O)c1ccc([N+](=O)[O-])cc1
REMARK SMILES IDX 11 1 12 2 13 3 14 4 18 5 19 6 9 7 3 8 5 9 6 10 8 11 4 12
REMARK SMILES IDX 7 14 10 16 2 17 1 18 15 19 16 20 17 21
REMARK H PARENT 5 13 8 15
ROOT
ATOM      1  C   UNL     1      -0.259   1.054  -1.636  1.00  0.00     0.040 A 
ATOM      2  C   UNL     1       0.046   2.272  -2.270  1.00  0.00     0.021 A 
ATOM      3  C   UNL     1       0.621   2.289  -3.543  1.00  0.00     0.086 A 
ATOM      4  C   UNL     1       0.903   1.089  -4.216  1.00  0.00     0.269 A 
ATOM      5  C   UNL     1       0.591  -0.129  -3.589  1.00  0.00     0.086 A 
ATOM      6  C   UNL     1       0.010  -0.148  -2.317  1.00  0.00     0.021 A 
ENDROOT
BRANCH   1   7
ATOM      7  C   UNL     1      -0.884   1.055  -0.289  1.00  0.00     0.259 C 
ATOM      8  C   UNL     1       0.011  -1.723   3.002  1.00  0.00     0.286 C 
ATOM      9  N   UNL     1      -1.312  -1.238   2.737  1.00  0.00    -0.268 N 
ATOM     10  C   UNL     1      -1.624  -0.245   1.750  1.00  0.00     0.329 C 
ATOM     11  N   UNL     1      -0.824  -0.103   0.564  1.00  0.00    -0.274 N 
ATOM     12  O   UNL     1       1.020  -1.174   2.485  1.00  0.00    -0.261 OA
ATOM     13  H   UNL     1      -2.084  -1.566   3.362  1.00  0.00     0.175 HD
ATOM     14  O   UNL     1      -2.654   0.466   1.906  1.00  0.00    -0.248 OA
ATOM     15  H   UNL     1      -0.166  -0.875   0.322  1.00  0.00     0.175 HD
ATOM     16  O   UNL     1      -1.453   2.104   0.123  1.00  0.00    -0.269 OA
BRANCH   8  17
ATOM     17  S   UNL     1       0.243  -3.102   4.120  1.00  0.00    -0.068 SA
ATOM     18  C   UNL     1       0.364  -2.039   5.592  1.00  0.00     0.096 C 
ENDBRANCH   8  17
ENDBRANCH   1   7
BRANCH   4  19
ATOM     19  N   UNL     1       1.498   1.103  -5.527  1.00  0.00     0.062 N 
ATOM     20  O   UNL     1       1.708   2.182  -6.120  1.00  0.00    -0.258 OA
ATOM     21  O   UNL     1       1.847  -0.075  -6.148  1.00  0.00    -0.258 OA
ENDBRANCH   4  19
TORSDOF 3
