REMARK SMILES O=C(Nc1cccc2ccccc12)c1cc2c(cc1Br)OCO2
REMARK SMILES IDX 14 1 15 2 16 3 17 4 18 5 19 6 20 7 21 8 22 9 23 10 2 11 3 12
REMARK SMILES IDX 1 13 4 15 5 16 13 17 6 18 12 19 8 20 7 21 11 22 9 23 10 24
REMARK H PARENT 3 14
ROOT
ATOM      1  C   UNL     1       1.972  -0.366  -0.224  1.00  0.00     0.058 A 
ATOM      2  C   UNL     1       2.636   0.651  -0.946  1.00  0.00     0.065 A 
ATOM      3  C   UNL     1       4.006   0.803  -0.758  1.00  0.00     0.166 A 
ATOM      4  C   UNL     1       4.709   0.003   0.080  1.00  0.00     0.166 A 
ATOM      5  C   UNL     1       4.105  -1.023   0.799  1.00  0.00     0.067 A 
ATOM      6  C   UNL     1       2.719  -1.218   0.643  1.00  0.00     0.034 A 
ATOM      7  Br  UNL     1       1.921  -2.709   1.550  1.00  0.00    -0.050 Br
ATOM      8  O   UNL     1       6.038   0.378   0.068  1.00  0.00    -0.454 OA
ATOM      9  C   UNL     1       6.178   1.485  -0.834  1.00  0.00     0.468 C 
ATOM     10  O   UNL     1       4.857   1.723  -1.339  1.00  0.00    -0.454 OA
ENDROOT
BRANCH   1  11
ATOM     11  C   UNL     1       0.516  -0.522  -0.403  1.00  0.00     0.256 C 
ATOM     12  N   UNL     1      -0.360  -0.540   0.734  1.00  0.00    -0.321 N 
ATOM     13  O   UNL     1       0.044  -0.599  -1.570  1.00  0.00    -0.269 OA
ATOM     14  H   UNL     1       0.047  -0.496   1.694  1.00  0.00     0.170 HD
BRANCH  12  15
ATOM     15  C   UNL     1      -1.762  -0.817   0.610  1.00  0.00     0.049 A 
ATOM     16  C   UNL     1      -2.259  -2.009   1.152  1.00  0.00     0.027 A 
ATOM     17  C   UNL     1      -2.647   0.086  -0.026  1.00  0.00     0.005 A 
ATOM     18  C   UNL     1      -3.610  -2.336   1.031  1.00  0.00     0.003 A 
ATOM     19  C   UNL     1      -2.210   1.332  -0.518  1.00  0.00     0.011 A 
ATOM     20  C   UNL     1      -4.020  -0.257  -0.150  1.00  0.00    -0.016 A 
ATOM     21  C   UNL     1      -4.487  -1.471   0.377  1.00  0.00     0.009 A 
ATOM     22  C   UNL     1      -3.107   2.199  -1.147  1.00  0.00     0.001 A 
ATOM     23  C   UNL     1      -4.908   0.624  -0.786  1.00  0.00     0.009 A 
ATOM     24  C   UNL     1      -4.449   1.845  -1.286  1.00  0.00     0.001 A 
ENDBRANCH  12  15
ENDBRANCH   1  11
TORSDOF 2
