REMARK SMILES CC(C)(C)n1nc(C2CC2)cc1NC(=O)Nc1ccc(Cl)cc1
REMARK SMILES IDX 5 1 6 2 7 3 11 4 12 5 2 6 1 7 3 8 4 9 13 10 14 11 16 12
REMARK SMILES IDX 15 14 17 16 18 17 23 18 19 19 22 20 20 21 21 22 8 23 9 24
REMARK SMILES IDX 10 25
REMARK H PARENT 13 13 16 15
ROOT
ATOM      1  N   UNL     1      -1.982  -0.407   0.576  1.00  0.00    -0.244 N 
ATOM      2  N   UNL     1      -2.914   0.529   0.711  1.00  0.00    -0.175 NA
ATOM      3  C   UNL     1      -2.468   1.661   0.136  1.00  0.00     0.068 A 
ATOM      4  C   UNL     1      -1.205   1.466  -0.377  1.00  0.00     0.072 A 
ATOM      5  C   UNL     1      -0.931   0.142  -0.091  1.00  0.00     0.133 A 
ENDROOT
BRANCH   1   6
ATOM      6  C   UNL     1      -2.153  -1.790   1.087  1.00  0.00     0.057 C 
ATOM      7  C   UNL     1      -2.450  -2.746  -0.083  1.00  0.00     0.036 C 
ATOM      8  C   UNL     1      -3.350  -1.845   2.066  1.00  0.00     0.036 C 
ATOM      9  C   UNL     1      -0.899  -2.253   1.862  1.00  0.00     0.036 C 
ENDBRANCH   1   6
BRANCH   5  10
ATOM     10  N   UNL     1       0.256  -0.551  -0.503  1.00  0.00    -0.292 N 
ATOM     11  C   UNL     1       1.553   0.062  -0.506  1.00  0.00     0.324 C 
ATOM     12  N   UNL     1       2.651  -0.609  -1.140  1.00  0.00    -0.308 N 
ATOM     13  H   UNL     1       0.183  -1.528  -0.855  1.00  0.00     0.173 HD
ATOM     14  O   UNL     1       1.723   1.188   0.037  1.00  0.00    -0.248 OA
ATOM     15  H   UNL     1       2.425  -1.365  -1.825  1.00  0.00     0.171 HD
BRANCH  12  16
ATOM     16  C   UNL     1       4.029  -0.224  -0.986  1.00  0.00     0.042 A 
ATOM     17  C   UNL     1       4.918  -0.402  -2.057  1.00  0.00     0.028 A 
ATOM     18  C   UNL     1       4.519   0.269   0.238  1.00  0.00     0.028 A 
ATOM     19  C   UNL     1       6.268  -0.061  -1.921  1.00  0.00     0.022 A 
ATOM     20  C   UNL     1       5.870   0.607   0.371  1.00  0.00     0.022 A 
ATOM     21  C   UNL     1       6.744   0.446  -0.708  1.00  0.00     0.041 A 
ATOM     22  Cl  UNL     1       8.439   0.863  -0.535  1.00  0.00    -0.084 Cl
ENDBRANCH  12  16
ENDBRANCH   5  10
BRANCH   3  23
ATOM     23  C   UNL     1      -3.225   2.952   0.125  1.00  0.00     0.040 C 
ATOM     24  C   UNL     1      -3.628   3.436  -1.260  1.00  0.00     0.011 C 
ATOM     25  C   UNL     1      -4.672   2.839  -0.331  1.00  0.00     0.011 C 
ENDBRANCH   3  23
TORSDOF 4
