REMARK SMILES CCOC(=O)C(=O)Cc1nc2ccccc2s1
REMARK SMILES IDX 4 1 5 2 3 3 2 4 1 5 6 6 7 7 8 8 9 9 10 10 17 11 11 12 16 13
REMARK SMILES IDX 12 14 15 15 13 16 14 17
REMARK H PARENT
ROOT
ATOM      1  C   UNL     1       2.295   1.328  -1.243  1.00  0.00     0.375 C 
ATOM      2  O   UNL     1       2.753   2.503  -1.280  1.00  0.00    -0.243 OA
ENDROOT
BRANCH   1   3
ATOM      3  O   UNL     1       2.588   0.487  -0.166  1.00  0.00    -0.460 OA
BRANCH   3   4
ATOM      4  C   UNL     1       3.378   0.901   0.943  1.00  0.00     0.230 C 
ATOM      5  C   UNL     1       3.476  -0.235   1.948  1.00  0.00     0.049 C 
ENDBRANCH   3   4
ENDBRANCH   1   3
BRANCH   1   6
ATOM      6  C   UNL     1       1.441   0.842  -2.338  1.00  0.00     0.246 C 
ATOM      7  O   UNL     1       1.151   1.614  -3.292  1.00  0.00    -0.286 OA
BRANCH   6   8
ATOM      8  C   UNL     1       0.875  -0.547  -2.318  1.00  0.00     0.156 C 
BRANCH   8   9
ATOM      9  C   UNL     1      -0.309  -0.609  -1.407  1.00  0.00     0.102 A 
ATOM     10  N   UNL     1      -1.531  -0.130  -1.746  1.00  0.00    -0.241 NA
ATOM     11  S   UNL     1      -0.269  -1.205   0.180  1.00  0.00    -0.118 S 
ATOM     12  C   UNL     1      -2.408  -0.269  -0.720  1.00  0.00     0.082 A 
ATOM     13  C   UNL     1      -1.888  -0.845   0.428  1.00  0.00     0.055 A 
ATOM     14  C   UNL     1      -3.746   0.129  -0.765  1.00  0.00     0.030 A 
ATOM     15  C   UNL     1      -2.660  -1.050   1.569  1.00  0.00     0.021 A 
ATOM     16  C   UNL     1      -4.548  -0.068   0.372  1.00  0.00     0.002 A 
ATOM     17  C   UNL     1      -4.007  -0.655   1.534  1.00  0.00     0.002 A 
ENDBRANCH   8   9
ENDBRANCH   6   8
ENDBRANCH   1   6
TORSDOF 5
