REMARK SMILES C=CCOc1ccn(C)c(=O)n1
REMARK SMILES IDX 3 1 2 2 1 3 4 4 5 5 6 6 12 7 7 8 10 9 8 10 11 11 9 12
REMARK H PARENT
ROOT
ATOM      1  C   UNL     1       2.497  -0.980  -0.853  1.00  0.00     0.258 C 
ENDROOT
BRANCH   1   2
ATOM      2  C   UNL     1       2.974   0.430  -0.656  1.00  0.00     0.006 C 
ATOM      3  C   UNL     1       3.614   0.800   0.456  1.00  0.00     0.007 C 
ENDBRANCH   1   2
BRANCH   1   4
ATOM      4  O   UNL     1       1.533  -1.331   0.138  1.00  0.00    -0.473 OA
BRANCH   4   5
ATOM      5  C   UNL     1       0.241  -0.794   0.181  1.00  0.00     0.219 A 
ATOM      6  C   UNL     1      -0.626  -1.173   1.203  1.00  0.00     0.086 A 
ATOM      7  N   UNL     1      -0.182   0.090  -0.760  1.00  0.00    -0.157 NA
ATOM      8  C   UNL     1      -1.908  -0.628   1.230  1.00  0.00     0.096 A 
ATOM      9  C   UNL     1      -1.433   0.617  -0.726  1.00  0.00     0.350 A 
ATOM     10  N   UNL     1      -2.304   0.262   0.271  1.00  0.00    -0.302 N 
ATOM     11  O   UNL     1      -1.780   1.434  -1.622  1.00  0.00    -0.246 OA
ATOM     12  C   UNL     1      -3.657   0.828   0.310  1.00  0.00     0.154 C 
ENDBRANCH   4   5
ENDBRANCH   1   4
TORSDOF 3
