REMARK SMILES O=C1c2ccccc2C(=O)N1c1ncn[nH]1
REMARK SMILES IDX 1 1 2 2 3 3 4 4 5 5 6 6 7 7 8 8 9 9 10 10 11 11 12 12 13 13
REMARK SMILES IDX 16 14 14 15 15 16
REMARK H PARENT 16 17
ROOT
ATOM      1  O   UNL     1       0.988   1.590   1.529  1.00  0.00    -0.268 OA
ATOM      2  C   UNL     1       0.377   0.796   0.766  1.00  0.00     0.268 C 
ATOM      3  C   UNL     1      -1.072   0.673   0.660  1.00  0.00     0.053 A 
ATOM      4  C   UNL     1      -2.094   1.349   1.323  1.00  0.00     0.015 A 
ATOM      5  C   UNL     1      -3.423   1.012   1.008  1.00  0.00     0.001 A 
ATOM      6  C   UNL     1      -3.699   0.015   0.047  1.00  0.00     0.001 A 
ATOM      7  C   UNL     1      -2.649  -0.653  -0.609  1.00  0.00     0.015 A 
ATOM      8  C   UNL     1      -1.342  -0.300  -0.279  1.00  0.00     0.053 A 
ATOM      9  C   UNL     1      -0.066  -0.803  -0.776  1.00  0.00     0.268 C 
ATOM     10  O   UNL     1       0.070  -1.703  -1.647  1.00  0.00    -0.268 OA
ATOM     11  N   UNL     1       1.016  -0.123  -0.128  1.00  0.00    -0.209 N 
ENDROOT
BRANCH  11  12
ATOM     12  C   UNL     1       2.430  -0.299  -0.310  1.00  0.00     0.235 A 
ATOM     13  N   UNL     1       3.358   0.407   0.364  1.00  0.00    -0.199 NA
ATOM     14  N   UNL     1       2.987  -1.176  -1.163  1.00  0.00    -0.245 N 
ATOM     15  C   UNL     1       4.509  -0.096  -0.132  1.00  0.00     0.248 A 
ATOM     16  N   UNL     1       4.297  -1.054  -1.056  1.00  0.00    -0.161 NA
ATOM     17  H   UNL     1       2.512  -1.845  -1.806  1.00  0.00     0.193 HD
ENDBRANCH  11  12
TORSDOF 1
