REMARK SMILES C=C(O)c1c(OC(C)=O)c(C)c(OC(C)=O)c2c1O[C@H]1CC(O)=C(C(C)=O)C(=O)[C@]21C
REMARK SMILES IDX 22 1 24 2 28 3 29 4 30 5 31 6 17 7 12 8 10 9 11 10 5 11 4 12
REMARK SMILES IDX 18 13 19 14 20 15 21 16 23 17 25 19 26 20 27 21 13 22 14 23
REMARK SMILES IDX 15 24 16 25 2 26 1 27 3 28 6 30 7 31 8 32 9 33
REMARK H PARENT 23 18 3 29
ROOT
ATOM      1  C   UNL     1       4.048  -0.804   1.046  1.00  0.00     0.110 C 
ATOM      2  C   UNL     1       3.744   0.528   0.915  1.00  0.00     0.099 C 
ATOM      3  C   UNL     1       2.352   0.952   0.538  1.00  0.00     0.184 C 
ATOM      4  O   UNL     1       1.998   2.160   0.586  1.00  0.00    -0.293 OA
ATOM      5  C   UNL     1       1.429  -0.112   0.013  1.00  0.00     0.101 C 
ATOM      6  C   UNL     1       1.798  -0.428  -1.458  1.00  0.00     0.029 C 
ATOM      7  C   UNL     1      -0.071   0.003   0.093  1.00  0.00     0.056 A 
ATOM      8  C   UNL     1      -0.923   1.003  -0.386  1.00  0.00     0.145 A 
ATOM      9  C   UNL     1      -2.314   0.728  -0.466  1.00  0.00     0.036 A 
ATOM     10  C   UNL     1      -3.270   1.782  -0.968  1.00  0.00     0.052 C 
ATOM     11  C   UNL     1      -2.809  -0.542  -0.052  1.00  0.00     0.152 A 
ATOM     12  C   UNL     1      -1.923  -1.543   0.415  1.00  0.00     0.101 A 
ATOM     13  C   UNL     1      -0.558  -1.244   0.441  1.00  0.00     0.142 A 
ATOM     14  O   UNL     1       0.474  -2.111   0.786  1.00  0.00    -0.487 OA
ATOM     15  C   UNL     1       1.619  -1.297   0.975  1.00  0.00     0.199 C 
ATOM     16  C   UNL     1       3.007  -1.911   0.845  1.00  0.00     0.122 C 
ENDROOT
BRANCH   1  17
ATOM     17  O   UNL     1       5.340  -1.193   1.395  1.00  0.00    -0.511 OA
ATOM     18  H   UNL     1       5.588  -2.170   1.495  1.00  0.00     0.293 HD
ENDBRANCH   1  17
BRANCH   2  19
ATOM     19  C   UNL     1       4.766   1.580   1.149  1.00  0.00     0.166 C 
ATOM     20  C   UNL     1       6.177   1.441   0.662  1.00  0.00     0.094 C 
ATOM     21  O   UNL     1       4.445   2.627   1.772  1.00  0.00    -0.294 OA
ENDBRANCH   2  19
BRANCH   8  22
ATOM     22  O   UNL     1      -0.383   2.220  -0.816  1.00  0.00    -0.426 OA
BRANCH  22  23
ATOM     23  C   UNL     1      -0.673   3.446  -0.206  1.00  0.00     0.308 C 
ATOM     24  C   UNL     1      -0.180   4.709  -0.824  1.00  0.00     0.139 C 
ATOM     25  O   UNL     1      -1.345   3.494   0.860  1.00  0.00    -0.252 OA
ENDBRANCH  22  23
ENDBRANCH   8  22
BRANCH  12  26
ATOM     26  C   UNL     1      -2.421  -2.873   0.843  1.00  0.00     0.123 C 
ATOM     27  C   UNL     1      -1.955  -3.464   1.948  1.00  0.00     0.059 C 
BRANCH  26  28
ATOM     28  O   UNL     1      -3.402  -3.509   0.082  1.00  0.00    -0.508 OA
ATOM     29  H   UNL     1      -3.780  -4.414   0.338  1.00  0.00     0.293 HD
ENDBRANCH  26  28
ENDBRANCH  12  26
BRANCH  11  30
ATOM     30  O   UNL     1      -4.185  -0.802  -0.080  1.00  0.00    -0.425 OA
BRANCH  30  31
ATOM     31  C   UNL     1      -4.848  -1.223  -1.237  1.00  0.00     0.308 C 
ATOM     32  C   UNL     1      -6.314  -1.491  -1.186  1.00  0.00     0.139 C 
ATOM     33  O   UNL     1      -4.212  -1.426  -2.307  1.00  0.00    -0.252 OA
ENDBRANCH  30  31
ENDBRANCH  11  30
TORSDOF 8
