REMARK SMILES N#C/C(=C\c1cc(O)c(O)c(O)c1)C(N)=O
REMARK SMILES IDX 4 1 3 2 2 3 1 4 14 5 15 6 16 7 5 10 6 11 13 12 7 13 11 14
REMARK SMILES IDX 9 15 8 16 12 18 10 20
REMARK H PARENT 15 8 15 9 8 17 12 19 10 21
ROOT
ATOM      1  C   UNL     1       1.433  -0.487  -0.190  1.00  0.00     0.033 C 
ENDROOT
BRANCH   1   2
ATOM      2  C   UNL     1       2.287   0.220   0.579  1.00  0.00     0.117 C 
BRANCH   2   3
ATOM      3  C   UNL     1       1.798   1.233   1.490  1.00  0.00     0.105 C 
ATOM      4  N   UNL     1       1.409   2.044   2.217  1.00  0.00    -0.192 NA
ENDBRANCH   2   3
BRANCH   2   5
ATOM      5  C   UNL     1       3.755   0.019   0.454  1.00  0.00     0.259 C 
ATOM      6  N   UNL     1       4.679   0.792   1.226  1.00  0.00    -0.365 N 
ATOM      7  O   UNL     1       4.209  -0.850  -0.341  1.00  0.00    -0.269 OA
ATOM      8  H   UNL     1       5.706   0.632   1.121  1.00  0.00     0.159 HD
ATOM      9  H   UNL     1       4.362   1.520   1.902  1.00  0.00     0.159 HD
ENDBRANCH   2   5
ENDBRANCH   1   2
BRANCH   1  10
ATOM     10  C   UNL     1      -0.044  -0.373  -0.140  1.00  0.00    -0.017 A 
ATOM     11  C   UNL     1      -0.762  -0.311  -1.340  1.00  0.00     0.058 A 
ATOM     12  C   UNL     1      -0.745  -0.410   1.076  1.00  0.00     0.058 A 
ATOM     13  C   UNL     1      -2.158  -0.234  -1.332  1.00  0.00     0.161 A 
ATOM     14  C   UNL     1      -2.142  -0.337   1.103  1.00  0.00     0.161 A 
ATOM     15  C   UNL     1      -2.861  -0.238  -0.113  1.00  0.00     0.200 A 
BRANCH  13  16
ATOM     16  O   UNL     1      -2.831  -0.153  -2.552  1.00  0.00    -0.504 OA
ATOM     17  H   UNL     1      -3.840  -0.095  -2.610  1.00  0.00     0.293 HD
ENDBRANCH  13  16
BRANCH  14  18
ATOM     18  O   UNL     1      -2.769  -0.372   2.350  1.00  0.00    -0.504 OA
ATOM     19  H   UNL     1      -3.770  -0.344   2.482  1.00  0.00     0.293 HD
ENDBRANCH  14  18
BRANCH  15  20
ATOM     20  O   UNL     1      -4.255  -0.147  -0.150  1.00  0.00    -0.502 OA
ATOM     21  H   UNL     1      -4.844  -0.126   0.670  1.00  0.00     0.293 HD
ENDBRANCH  15  20
ENDBRANCH   1  10
TORSDOF 7
