REMARK SMILES S=c1[nH]ccn1-c1ccccc1Cl
REMARK SMILES IDX 7 1 8 2 9 3 10 4 11 5 12 6 13 7 6 8 2 9 3 10 4 11 5 12 1 13
REMARK H PARENT 3 14
ROOT
ATOM      1  C   UNL     1       0.394   0.008  -0.017  1.00  0.00     0.066 A 
ATOM      2  C   UNL     1       1.014  -0.210  -1.257  1.00  0.00     0.028 A 
ATOM      3  C   UNL     1       2.406  -0.298  -1.344  1.00  0.00     0.002 A 
ATOM      4  C   UNL     1       3.188  -0.159  -0.195  1.00  0.00     0.002 A 
ATOM      5  C   UNL     1       2.581   0.076   1.041  1.00  0.00     0.023 A 
ATOM      6  C   UNL     1       1.187   0.165   1.137  1.00  0.00     0.065 A 
ATOM      7  Cl  UNL     1       0.464   0.529   2.699  1.00  0.00    -0.082 Cl
ENDROOT
BRANCH   1   8
ATOM      8  N   UNL     1      -1.037   0.089   0.051  1.00  0.00    -0.291 N 
ATOM      9  C   UNL     1      -1.899  -0.771   0.637  1.00  0.00     0.181 A 
ATOM     10  N   UNL     1      -3.182  -0.409   0.449  1.00  0.00    -0.337 N 
ATOM     11  C   UNL     1      -3.130   0.717  -0.289  1.00  0.00     0.103 A 
ATOM     12  C   UNL     1      -1.807   1.022  -0.542  1.00  0.00     0.112 A 
ATOM     13  S   UNL     1      -1.461  -2.155   1.400  1.00  0.00    -0.040 S 
ATOM     14  H   UNL     1      -4.039  -0.906   0.778  1.00  0.00     0.168 HD
ENDBRANCH   1   8
TORSDOF 1
