REMARK SMILES [SH2]=c1[nH]c2ccccc2c2ccccc12
REMARK SMILES IDX 3 1 2 2 15 3 14 4 13 5 12 6 11 7 10 8 9 9 8 10 7 11 6 12
REMARK SMILES IDX 5 13 4 14 1 16
REMARK H PARENT 3 15 1 17 1 18
ROOT
ATOM      1  N   UNL     1      -0.035  -1.896   0.239  1.00  0.00    -0.350 N 
ATOM      2  C   UNL     1      -1.269  -1.329   0.342  1.00  0.00     0.065 A 
ATOM      3  C   UNL     1      -1.409   0.078   0.229  1.00  0.00     0.011 A 
ATOM      4  C   UNL     1      -2.672   0.710   0.340  1.00  0.00     0.011 A 
ATOM      5  C   UNL     1      -2.793   2.092   0.225  1.00  0.00     0.001 A 
ATOM      6  C   UNL     1      -1.669   2.873  -0.001  1.00  0.00     0.001 A 
ATOM      7  C   UNL     1      -0.412   2.282  -0.113  1.00  0.00     0.009 A 
ATOM      8  C   UNL     1      -0.250   0.878  -0.001  1.00  0.00    -0.006 A 
ATOM      9  C   UNL     1       1.022   0.245  -0.107  1.00  0.00     0.006 A 
ATOM     10  C   UNL     1       2.229   0.954  -0.335  1.00  0.00     0.011 A 
ATOM     11  C   UNL     1       3.449   0.281  -0.429  1.00  0.00     0.001 A 
ATOM     12  C   UNL     1       3.500  -1.103  -0.299  1.00  0.00     0.002 A 
ATOM     13  C   UNL     1       2.330  -1.823  -0.076  1.00  0.00     0.027 A 
ATOM     14  C   UNL     1       1.091  -1.165   0.021  1.00  0.00     0.047 A 
ATOM     15  H   UNL     1       0.057  -2.935   0.329  1.00  0.00     0.167 HD
ENDROOT
BRANCH   2  16
ATOM     16  S   UNL     1      -2.554  -2.297   0.595  1.00  0.00    -0.191 S 
ATOM     17  H   UNL     1      -2.091  -3.611   0.571  1.00  0.00     0.095 HD
ATOM     18  H   UNL     1      -3.285  -2.187  -0.585  1.00  0.00     0.095 HD
ENDBRANCH   2  16
TORSDOF 1
