REMARK SMILES CCN=c1[nH]n2ccccc2c1/C=C(/C#N)C(=O)OCC
REMARK SMILES IDX 13 1 12 2 5 3 4 4 6 5 7 6 11 7 8 8 10 9 9 10 3 12 2 13 1 14
REMARK SMILES IDX 14 15 15 16 16 17 17 18 18 19 19 20 20 21 21 22
REMARK H PARENT 5 11
ROOT
ATOM      1  C   UNL     1      -0.000  -1.206   1.371  1.00  0.00     0.041 C 
ENDROOT
BRANCH   1   2
ATOM      2  C   UNL     1      -0.857  -0.331   0.548  1.00  0.00     0.045 A 
ATOM      3  N   UNL     1      -2.485   0.353  -0.849  1.00  0.00    -0.277 N 
ATOM      4  C   UNL     1      -1.841  -0.728  -0.351  1.00  0.00     0.149 A 
ATOM      5  N   UNL     1      -1.958   1.421  -0.274  1.00  0.00    -0.261 N 
ATOM      6  C   UNL     1      -2.338   2.711  -0.458  1.00  0.00     0.111 A 
ATOM      7  C   UNL     1      -0.986   1.052   0.582  1.00  0.00     0.073 A 
ATOM      8  C   UNL     1      -1.690   3.707   0.288  1.00  0.00     0.020 A 
ATOM      9  C   UNL     1      -0.326   1.998   1.368  1.00  0.00     0.029 A 
ATOM     10  C   UNL     1      -0.685   3.345   1.205  1.00  0.00     0.004 A 
ATOM     11  H   UNL     1      -3.269   0.370  -1.539  1.00  0.00     0.190 HD
BRANCH   4  12
ATOM     12  N   UNL     1      -2.105  -1.962  -0.664  1.00  0.00    -0.267 NA
BRANCH  12  13
ATOM     13  C   UNL     1      -3.142  -2.362  -1.608  1.00  0.00     0.141 C 
ATOM     14  C   UNL     1      -3.167  -3.879  -1.729  1.00  0.00     0.029 C 
ENDBRANCH  12  13
ENDBRANCH   4  12
ENDBRANCH   1   2
BRANCH   1  15
ATOM     15  C   UNL     1       1.329  -1.060   1.519  1.00  0.00     0.138 C 
BRANCH  15  16
ATOM     16  C   UNL     1       2.009  -1.919   2.456  1.00  0.00     0.107 C 
ATOM     17  N   UNL     1       2.555  -2.609   3.208  1.00  0.00    -0.192 NA
ENDBRANCH  15  16
BRANCH  15  18
ATOM     18  C   UNL     1       2.153  -0.111   0.737  1.00  0.00     0.348 C 
ATOM     19  O   UNL     1       1.757   0.315  -0.383  1.00  0.00    -0.245 OA
BRANCH  18  20
ATOM     20  O   UNL     1       3.400   0.283   1.237  1.00  0.00    -0.462 OA
BRANCH  20  21
ATOM     21  C   UNL     1       4.289   1.153   0.539  1.00  0.00     0.230 C 
ATOM     22  C   UNL     1       4.995   0.409  -0.589  1.00  0.00     0.049 C 
ENDBRANCH  20  21
ENDBRANCH  18  20
ENDBRANCH  15  18
ENDBRANCH   1  15
TORSDOF 8
