REMARK SMILES CC(C)(NC(=O)c1cc(Cl)c2ccccc2c1O)C(=O)[O-]
REMARK SMILES IDX 4 1 5 2 6 3 2 5 1 6 3 7 19 8 20 9 21 10 7 11 8 12 17 13 9 14
REMARK SMILES IDX 16 15 11 16 15 17 12 18 14 19 13 20 10 21 18 22
REMARK H PARENT 4 4 18 23
ROOT
ATOM      1  N   UNL     1      -1.941   0.149  -0.789  1.00  0.00    -0.342 N 
ATOM      2  C   UNL     1      -0.937  -0.638  -0.119  1.00  0.00     0.255 C 
ATOM      3  O   UNL     1      -1.165  -1.837   0.195  1.00  0.00    -0.269 OA
ATOM      4  H   UNL     1      -1.657   1.109  -1.095  1.00  0.00     0.164 HD
ENDROOT
BRANCH   1   5
ATOM      5  C   UNL     1      -3.312  -0.305  -1.093  1.00  0.00     0.074 C 
ATOM      6  C   UNL     1      -3.269  -1.508  -2.059  1.00  0.00     0.041 C 
ATOM      7  C   UNL     1      -4.044  -0.708   0.204  1.00  0.00     0.041 C 
BRANCH   5   8
ATOM      8  C   UNL     1      -4.069   0.842  -1.742  1.00  0.00     0.066 C 
ATOM      9  O   UNL     1      -4.456   1.819  -1.045  1.00  0.00    -0.548 OA
ATOM     10  O   UNL     1      -4.277   0.874  -3.119  1.00  0.00    -0.548 OA
ENDBRANCH   5   8
ENDBRANCH   1   5
BRANCH   2  11
ATOM     11  C   UNL     1       0.361  -0.028   0.241  1.00  0.00     0.083 A 
ATOM     12  C   UNL     1       0.360   1.228   0.864  1.00  0.00     0.039 A 
ATOM     13  C   UNL     1       1.590  -0.689   0.010  1.00  0.00     0.136 A 
ATOM     14  C   UNL     1       1.548   1.829   1.283  1.00  0.00     0.049 A 
ATOM     15  C   UNL     1       2.796  -0.098   0.444  1.00  0.00     0.026 A 
ATOM     16  C   UNL     1       2.779   1.171   1.084  1.00  0.00     0.004 A 
ATOM     17  C   UNL     1       4.028  -0.749   0.237  1.00  0.00     0.012 A 
ATOM     18  C   UNL     1       3.995   1.746   1.503  1.00  0.00     0.010 A 
ATOM     19  C   UNL     1       5.221  -0.161   0.660  1.00  0.00     0.001 A 
ATOM     20  C   UNL     1       5.204   1.082   1.290  1.00  0.00     0.001 A 
ATOM     21  Cl  UNL     1       1.436   3.403   2.068  1.00  0.00    -0.084 Cl
BRANCH  13  22
ATOM     22  O   UNL     1       1.639  -1.913  -0.669  1.00  0.00    -0.506 OA
ATOM     23  H   UNL     1       0.838  -2.335  -1.119  1.00  0.00     0.293 HD
ENDBRANCH  13  22
ENDBRANCH   2  11
TORSDOF 4
