REMARK SMILES CCOC(=O)Nc1ccc2nc(N3CCCCCC3)sc2c1
REMARK SMILES IDX 7 1 8 2 9 3 10 4 11 5 12 6 20 7 21 8 22 9 6 10 4 11 5 12
REMARK SMILES IDX 3 14 2 15 1 16 13 17 14 18 15 19 16 20 19 22 18 23 17 24
REMARK H PARENT 6 13
REMARK Flexibility Score:   15.900
ROOT
ATOM      1  C   UNL     1       2.736  -0.562  -0.261  1.00  0.00     0.046 A 
ATOM      2  C   UNL     1       2.585   0.836  -0.443  1.00  0.00     0.028 A 
ATOM      3  C   UNL     1       1.347   1.461  -0.212  1.00  0.00     0.032 A 
ATOM      4  C   UNL     1       0.264   0.680   0.185  1.00  0.00     0.084 A 
ATOM      5  N   UNL     1      -0.980   1.164   0.433  1.00  0.00    -0.220 NA
ATOM      6  C   UNL     1      -1.830   0.168   0.794  1.00  0.00     0.186 A 
ATOM      7  S   UNL     1      -1.061  -1.348   0.810  1.00  0.00    -0.097 S 
ATOM      8  C   UNL     1       0.409  -0.688   0.342  1.00  0.00     0.058 A 
ATOM      9  C   UNL     1       1.621  -1.334   0.120  1.00  0.00     0.047 A 
ENDROOT
BRANCH   1  10
ATOM     10  N   UNL     1       3.989  -1.219  -0.517  1.00  0.00    -0.291 N 
ATOM     11  C   UNL     1       5.273  -0.636  -0.262  1.00  0.00     0.411 C 
ATOM     12  O   UNL     1       5.374   0.426   0.412  1.00  0.00    -0.224 OA
ATOM     13  H   UNL     1       3.970  -2.216  -0.831  1.00  0.00     0.173 HD
BRANCH  11  14
ATOM     14  O   UNL     1       6.420  -1.289  -0.729  1.00  0.00    -0.450 OA
BRANCH  14  15
ATOM     15  C   UNL     1       7.740  -0.776  -0.559  1.00  0.00     0.231 C 
ATOM     16  C   UNL     1       7.998   0.377  -1.523  1.00  0.00     0.049 C 
ENDBRANCH  14  15
ENDBRANCH  11  14
ENDBRANCH   1  10
BRANCH   6  17
ATOM     17  N   UNL     1      -3.221   0.395   1.104  1.00  0.00    -0.348 N 
BRANCH  17  18
ATOM     18  C   UNL     1      -4.016  -0.662   1.743  1.00  0.00     0.119 C 
BRANCH  18  19
ATOM     19  C   UNL     1      -4.721  -1.506   0.676  1.00  0.00     0.021 C 
BRANCH  19  20
ATOM     20  C   UNL     1      -5.949  -0.804   0.082  1.00  0.00     0.002 CG0
ATOM     21  G   UNL     1      -5.630   0.548  -0.578  1.00  0.00     0.000 G0
ENDBRANCH  19  20
ENDBRANCH  18  19
ENDBRANCH  17  18
BRANCH  17  22
ATOM     22  C   UNL     1      -3.814   1.712   0.817  1.00  0.00     0.119 C 
BRANCH  22  23
ATOM     23  C   UNL     1      -5.307   1.647   0.450  1.00  0.00     0.021 C 
BRANCH  23  24
ATOM     24  C   UNL     1      -5.630   0.548  -0.578  1.00  0.00     0.002 CG0
ATOM     25  G   UNL     1      -5.949  -0.804   0.082  1.00  0.00     0.000 G0
ENDBRANCH  23  24
ENDBRANCH  22  23
ENDBRANCH  17  22
ENDBRANCH   6  17
TORSDOF 4
