REMARK SMILES CCSc1ncc(CO)c(=N)[nH]1
REMARK SMILES IDX 12 1 4 2 5 3 6 4 7 5 10 6 3 8 2 9 1 10 11 11 8 13 9 14
REMARK H PARENT 12 7 11 12 9 15
ROOT
ATOM      1  N   UNL     1       0.021   0.737   0.815  1.00  0.00    -0.320 N 
ATOM      2  C   UNL     1       0.657  -0.440   0.574  1.00  0.00     0.166 A 
ATOM      3  N   UNL     1      -0.022  -1.482   0.035  1.00  0.00    -0.232 NA
ATOM      4  C   UNL     1      -1.336  -1.373  -0.282  1.00  0.00     0.124 A 
ATOM      5  C   UNL     1      -2.020  -0.171  -0.060  1.00  0.00     0.038 A 
ATOM      6  C   UNL     1      -1.298   0.902   0.518  1.00  0.00     0.131 A 
ATOM      7  H   UNL     1       0.560   1.527   1.237  1.00  0.00     0.170 HD
ENDROOT
BRANCH   2   8
ATOM      8  S   UNL     1       2.394  -0.628   0.974  1.00  0.00    -0.088 SA
BRANCH   8   9
ATOM      9  C   UNL     1       2.951  -0.048  -0.662  1.00  0.00     0.075 C 
ATOM     10  C   UNL     1       4.471  -0.059  -0.727  1.00  0.00     0.016 C 
ENDBRANCH   8   9
ENDBRANCH   2   8
BRANCH   6  11
ATOM     11  N   UNL     1      -1.859   2.045   0.779  1.00  0.00    -0.284 NA
ATOM     12  H   UNL     1      -2.862   2.267   0.595  1.00  0.00     0.189 HD
ENDBRANCH   6  11
BRANCH   5  13
ATOM     13  C   UNL     1      -3.486  -0.078  -0.413  1.00  0.00     0.197 C 
BRANCH  13  14
ATOM     14  O   UNL     1      -4.264  -0.019   0.752  1.00  0.00    -0.391 OA
ATOM     15  H   UNL     1      -4.262  -0.933   1.139  1.00  0.00     0.211 HD
ENDBRANCH  13  14
ENDBRANCH   5  13
TORSDOF 5
