REMARK SMILES CC(=O)NC[C@@]1(O)CCC[C@H](C)C1
REMARK SMILES IDX 6 1 8 2 9 3 10 4 11 5 12 6 13 7 5 8 4 9 2 10 1 11 3 12 7 14
REMARK H PARENT 4 13 7 15
ROOT
ATOM      1  C   UNL     1      -0.192  -0.423  -0.467  1.00  0.00     0.082 C 
ATOM      2  C   UNL     1      -0.374  -1.388   0.737  1.00  0.00     0.037 C 
ATOM      3  C   UNL     1      -1.825  -1.407   1.230  1.00  0.00     0.003 C 
ATOM      4  C   UNL     1      -2.282  -0.002   1.639  1.00  0.00     0.003 C 
ATOM      5  C   UNL     1      -2.120   1.029   0.503  1.00  0.00    -0.011 C 
ATOM      6  C   UNL     1      -3.218   0.891  -0.564  1.00  0.00     0.008 C 
ATOM      7  C   UNL     1      -0.690   0.999  -0.091  1.00  0.00     0.040 C 
ENDROOT
BRANCH   1   8
ATOM      8  C   UNL     1       1.295  -0.375  -0.925  1.00  0.00     0.151 C 
BRANCH   8   9
ATOM      9  N   UNL     1       2.222   0.104   0.105  1.00  0.00    -0.353 N 
ATOM     10  C   UNL     1       3.625   0.229  -0.161  1.00  0.00     0.216 C 
ATOM     11  C   UNL     1       4.547   0.714   0.909  1.00  0.00     0.114 C 
ATOM     12  O   UNL     1       4.089  -0.079  -1.293  1.00  0.00    -0.275 OA
ATOM     13  H   UNL     1       1.889   0.360   1.060  1.00  0.00     0.163 HD
ENDBRANCH   8   9
ENDBRANCH   1   8
BRANCH   1  14
ATOM     14  O   UNL     1      -0.961  -0.878  -1.557  1.00  0.00    -0.388 OA
ATOM     15  H   UNL     1      -0.676  -1.804  -1.776  1.00  0.00     0.211 HD
ENDBRANCH   1  14
TORSDOF 3
