REMARK SMILES NC(=O)Nc1ccc(Nc2ccccc2)cc1
REMARK SMILES IDX 5 1 6 2 7 3 8 4 16 5 17 6 4 7 1 8 2 9 3 12 9 14 10 16 11 17
REMARK SMILES IDX 15 18 12 19 14 20 13 21
REMARK H PARENT 1 10 1 11 4 13 9 15
ROOT
ATOM      1  C   UNL     1       2.447   0.058  -0.177  1.00  0.00     0.043 A 
ATOM      2  C   UNL     1       1.563  -0.270   0.861  1.00  0.00     0.028 A 
ATOM      3  C   UNL     1       0.199   0.009   0.747  1.00  0.00     0.028 A 
ATOM      4  C   UNL     1      -0.310   0.596  -0.424  1.00  0.00     0.039 A 
ATOM      5  C   UNL     1       0.572   0.924  -1.463  1.00  0.00     0.028 A 
ATOM      6  C   UNL     1       1.937   0.645  -1.349  1.00  0.00     0.028 A 
ENDROOT
BRANCH   1   7
ATOM      7  N   UNL     1       3.842  -0.262  -0.042  1.00  0.00    -0.308 N 
ATOM      8  N   UNL     1       6.244   0.021  -0.581  1.00  0.00    -0.351 N 
ATOM      9  C   UNL     1       4.909   0.524  -0.597  1.00  0.00     0.316 C 
ATOM     10  H   UNL     1       6.450  -0.925  -0.190  1.00  0.00     0.161 HD
ATOM     11  H   UNL     1       7.028   0.593  -0.966  1.00  0.00     0.161 HD
ATOM     12  O   UNL     1       4.686   1.673  -1.064  1.00  0.00    -0.249 OA
ATOM     13  H   UNL     1       4.105  -1.068   0.570  1.00  0.00     0.171 HD
ENDBRANCH   1   7
BRANCH   4  14
ATOM     14  N   UNL     1      -1.706   0.918  -0.554  1.00  0.00    -0.356 N 
ATOM     15  H   UNL     1      -1.962   1.755  -1.126  1.00  0.00     0.167 HD
BRANCH  14  16
ATOM     16  C   UNL     1      -2.773   0.167   0.049  1.00  0.00     0.038 A 
ATOM     17  C   UNL     1      -3.961   0.822   0.408  1.00  0.00     0.026 A 
ATOM     18  C   UNL     1      -2.679  -1.226   0.226  1.00  0.00     0.026 A 
ATOM     19  C   UNL     1      -5.022   0.106   0.971  1.00  0.00     0.002 A 
ATOM     20  C   UNL     1      -3.742  -1.940   0.789  1.00  0.00     0.002 A 
ATOM     21  C   UNL     1      -4.911  -1.274   1.165  1.00  0.00     0.000 A 
ENDBRANCH  14  16
ENDBRANCH   4  14
TORSDOF 3
