REMARK SMILES NC(=O)c1ccccc1OCC(=O)Nc1ccc(Cl)c(Cl)c1
REMARK SMILES IDX 10 1 9 2 4 3 5 4 6 5 8 6 7 7 2 8 1 9 3 12 11 13 12 14 14 15
REMARK SMILES IDX 13 16 15 18 16 19 22 20 17 21 20 22 18 23 21 24 19 25
REMARK H PARENT 1 10 1 11 14 17
ROOT
ATOM      1  O   UNL     1      -1.532   0.979  -1.462  1.00  0.00    -0.483 OA
ENDROOT
BRANCH   1   2
ATOM      2  C   UNL     1      -1.846  -0.198  -0.757  1.00  0.00     0.132 A 
ATOM      3  C   UNL     1      -2.658  -0.112   0.399  1.00  0.00     0.081 A 
ATOM      4  C   UNL     1      -2.980  -1.288   1.102  1.00  0.00     0.018 A 
ATOM      5  C   UNL     1      -2.511  -2.528   0.667  1.00  0.00     0.001 A 
ATOM      6  C   UNL     1      -1.383  -1.460  -1.183  1.00  0.00     0.047 A 
ATOM      7  C   UNL     1      -1.715  -2.614  -0.473  1.00  0.00     0.004 A 
BRANCH   3   8
ATOM      8  C   UNL     1      -3.148   1.198   0.894  1.00  0.00     0.252 C 
ATOM      9  N   UNL     1      -4.397   1.308   1.580  1.00  0.00    -0.365 N 
ATOM     10  H   UNL     1      -5.056   0.501   1.645  1.00  0.00     0.159 HD
ATOM     11  H   UNL     1      -4.702   2.229   1.967  1.00  0.00     0.159 HD
ATOM     12  O   UNL     1      -2.458   2.238   0.714  1.00  0.00    -0.269 OA
ENDBRANCH   3   8
ENDBRANCH   1   2
BRANCH   1  13
ATOM     13  C   UNL     1      -0.621   1.073  -2.557  1.00  0.00     0.329 C 
BRANCH  13  14
ATOM     14  C   UNL     1       0.778   0.780  -2.105  1.00  0.00     0.262 C 
ATOM     15  N   UNL     1       1.265   1.336  -0.875  1.00  0.00    -0.323 N 
ATOM     16  O   UNL     1       1.535   0.090  -2.840  1.00  0.00    -0.271 OA
ATOM     17  H   UNL     1       0.787   2.186  -0.499  1.00  0.00     0.170 HD
BRANCH  15  18
ATOM     18  C   UNL     1       2.388   0.809  -0.149  1.00  0.00     0.042 A 
ATOM     19  C   UNL     1       3.153   1.667   0.653  1.00  0.00     0.028 A 
ATOM     20  C   UNL     1       2.699  -0.563  -0.174  1.00  0.00     0.048 A 
ATOM     21  C   UNL     1       4.233   1.173   1.389  1.00  0.00     0.024 A 
ATOM     22  C   UNL     1       3.779  -1.061   0.564  1.00  0.00     0.061 A 
ATOM     23  C   UNL     1       4.553  -0.188   1.346  1.00  0.00     0.059 A 
ATOM     24  Cl  UNL     1       4.130  -2.783   0.502  1.00  0.00    -0.083 Cl
ATOM     25  Cl  UNL     1       5.918  -0.772   2.288  1.00  0.00    -0.083 Cl
ENDBRANCH  15  18
ENDBRANCH  13  14
ENDBRANCH   1  13
TORSDOF 5
