REMARK SMILES COc1cc2c(cc1O)C[C@H]1c3c(cc(O)c(OC)c3-2)CC[N@@H+]1C
REMARK SMILES IDX 11 1 23 2 22 3 24 4 10 5 12 6 6 7 13 8 20 9 5 10 7 11 14 12
REMARK SMILES IDX 21 13 17 14 4 15 8 16 15 17 3 18 18 20 19 21 9 22 16 24 2 26
REMARK SMILES IDX 1 27
REMARK H PARENT 23 19 9 23 16 25
ROOT
ATOM      1  C   UNL     1       3.351  -2.212   1.074  1.00  0.00     0.220 C 
ATOM      2  N   UNL     1       3.891  -3.401   0.343  1.00  0.00    -0.331 N 
ATOM      3  C   UNL     1       4.863  -3.038  -0.708  1.00  0.00     0.267 C 
ATOM      4  C   UNL     1       2.799  -4.238  -0.196  1.00  0.00     0.333 C 
ATOM      5  C   UNL     1       4.136  -1.914   2.353  1.00  0.00     0.106 C 
ATOM      6  C   UNL     1       3.261  -0.940   0.251  1.00  0.00     0.025 A 
ATOM      7  C   UNL     1       3.503  -0.765   3.097  1.00  0.00    -0.030 A 
ATOM      8  C   UNL     1       3.545  -0.949  -1.125  1.00  0.00    -0.029 A 
ATOM      9  C   UNL     1       2.796   0.245   0.879  1.00  0.00     0.037 A 
ATOM     10  C   UNL     1       2.889   0.313   2.399  1.00  0.00    -0.007 A 
ATOM     11  C   UNL     1       3.589  -0.748   4.495  1.00  0.00     0.054 A 
ATOM     12  C   UNL     1       3.183   0.142  -1.914  1.00  0.00     0.054 A 
ATOM     13  C   UNL     1       4.256  -2.106  -1.763  1.00  0.00     0.097 C 
ATOM     14  C   UNL     1       2.282   1.280   0.040  1.00  0.00     0.168 A 
ATOM     15  C   UNL     1       2.441   1.417   3.170  1.00  0.00     0.059 A 
ATOM     16  C   UNL     1       3.077   0.321   5.233  1.00  0.00     0.157 A 
ATOM     17  C   UNL     1       2.521   1.233  -1.352  1.00  0.00     0.158 A 
ATOM     18  C   UNL     1       2.512   1.414   4.576  1.00  0.00     0.161 A 
ATOM     19  H   UNL     1       4.405  -4.010   1.022  1.00  0.00     0.348 HD
ENDROOT
BRANCH  14  20
ATOM     20  O   UNL     1       1.498   2.308   0.580  1.00  0.00    -0.492 OA
ATOM     21  C   UNL     1       0.315   2.827  -0.025  1.00  0.00     0.278 C 
ENDBRANCH  14  20
BRANCH  16  22
ATOM     22  O   UNL     1       3.166   0.320   6.623  1.00  0.00    -0.504 OA
ATOM     23  H   UNL     1       3.725  -0.367   7.107  1.00  0.00     0.293 HD
ENDBRANCH  16  22
BRANCH  17  24
ATOM     24  O   UNL     1       2.116   2.285  -2.172  1.00  0.00    -0.504 OA
ATOM     25  H   UNL     1       2.284   2.278  -3.173  1.00  0.00     0.293 HD
ENDBRANCH  17  24
BRANCH  18  26
ATOM     26  O   UNL     1       2.008   2.476   5.346  1.00  0.00    -0.493 OA
ATOM     27  C   UNL     1       2.134   3.855   5.007  1.00  0.00     0.278 C 
ENDBRANCH  18  26
TORSDOF 4
