REMARK SMILES Nc1ccccc1S[C@H]1CC(=O)N(c2ccc(Cl)c(Cl)c2)C1=O
REMARK SMILES IDX 8 1 7 2 2 3 3 4 4 5 6 6 5 7 1 8 9 11 10 12 22 13 11 14 13 15
REMARK SMILES IDX 23 16 12 17 14 18 15 19 21 20 16 21 19 22 17 23 20 24 18 25
REMARK H PARENT 1 9 1 10
ROOT
ATOM      1  S   UNL     1      -2.437  -2.470   0.044  1.00  0.00    -0.110 SA
ENDROOT
BRANCH   1   2
ATOM      2  C   UNL     1      -2.117  -0.914  -0.820  1.00  0.00     0.031 A 
ATOM      3  C   UNL     1      -2.411   0.337  -0.229  1.00  0.00     0.045 A 
ATOM      4  C   UNL     1      -2.106   1.517  -0.926  1.00  0.00     0.026 A 
ATOM      5  C   UNL     1      -1.545   1.460  -2.204  1.00  0.00     0.002 A 
ATOM      6  C   UNL     1      -1.595  -0.956  -2.121  1.00  0.00     0.017 A 
ATOM      7  C   UNL     1      -1.300   0.225  -2.804  1.00  0.00     0.001 A 
BRANCH   3   8
ATOM      8  N   UNL     1      -3.023   0.430   1.063  1.00  0.00    -0.398 N 
ATOM      9  H   UNL     1      -3.324  -0.415   1.596  1.00  0.00     0.156 HD
ATOM     10  H   UNL     1      -3.203   1.362   1.498  1.00  0.00     0.156 HD
ENDBRANCH   3   8
ENDBRANCH   1   2
BRANCH   1  11
ATOM     11  C   UNL     1      -0.773  -2.712   0.802  1.00  0.00     0.151 C 
ATOM     12  C   UNL     1       0.305  -3.072  -0.245  1.00  0.00     0.126 C 
ATOM     13  C   UNL     1      -0.245  -1.466   1.440  1.00  0.00     0.247 C 
ATOM     14  C   UNL     1       1.205  -1.881  -0.248  1.00  0.00     0.235 C 
ATOM     15  N   UNL     1       0.899  -0.947   0.778  1.00  0.00    -0.249 N 
ATOM     16  O   UNL     1      -0.719  -0.966   2.494  1.00  0.00    -0.273 OA
ATOM     17  O   UNL     1       2.121  -1.706  -1.094  1.00  0.00    -0.274 OA
BRANCH  15  18
ATOM     18  C   UNL     1       1.555   0.309   1.030  1.00  0.00     0.053 A 
ATOM     19  C   UNL     1       0.810   1.441   1.400  1.00  0.00     0.028 A 
ATOM     20  C   UNL     1       2.950   0.421   0.905  1.00  0.00     0.049 A 
ATOM     21  C   UNL     1       1.447   2.663   1.630  1.00  0.00     0.024 A 
ATOM     22  C   UNL     1       3.591   1.644   1.138  1.00  0.00     0.061 A 
ATOM     23  C   UNL     1       2.835   2.771   1.501  1.00  0.00     0.059 A 
ATOM     24  Cl  UNL     1       5.339   1.734   0.973  1.00  0.00    -0.083 Cl
ATOM     25  Cl  UNL     1       3.600   4.326   1.800  1.00  0.00    -0.083 Cl
ENDBRANCH  15  18
ENDBRANCH   1  11
TORSDOF 4
