REMARK SMILES CCOc1ccc(NC(=O)c2cc3ccccc3cc2O)cc1
REMARK SMILES IDX 4 1 5 2 6 3 7 4 22 5 23 6 3 7 2 8 1 9 8 10 9 11 10 13 11 14
REMARK SMILES IDX 12 15 20 16 13 17 19 18 14 19 18 20 15 21 17 22 16 23 21 24
REMARK H PARENT 8 12 21 25
ROOT
ATOM      1  C   UNL     1       4.384   0.400   0.615  1.00  0.00     0.119 A 
ATOM      2  C   UNL     1       3.447  -0.173   1.482  1.00  0.00     0.048 A 
ATOM      3  C   UNL     1       2.089  -0.190   1.154  1.00  0.00     0.030 A 
ATOM      4  C   UNL     1       1.641   0.384  -0.049  1.00  0.00     0.041 A 
ATOM      5  C   UNL     1       2.581   0.944  -0.926  1.00  0.00     0.030 A 
ATOM      6  C   UNL     1       3.939   0.962  -0.597  1.00  0.00     0.048 A 
ENDROOT
BRANCH   1   7
ATOM      7  O   UNL     1       5.735   0.391   1.001  1.00  0.00    -0.494 OA
BRANCH   7   8
ATOM      8  C   UNL     1       6.831   0.833   0.199  1.00  0.00     0.226 C 
ATOM      9  C   UNL     1       7.164  -0.195  -0.876  1.00  0.00     0.049 C 
ENDBRANCH   7   8
ENDBRANCH   1   7
BRANCH   4  10
ATOM     10  N   UNL     1       0.253   0.358  -0.422  1.00  0.00    -0.322 N 
ATOM     11  C   UNL     1      -0.831   0.394   0.521  1.00  0.00     0.259 C 
ATOM     12  H   UNL     1       0.016   0.423  -1.438  1.00  0.00     0.170 HD
ATOM     13  O   UNL     1      -0.640   0.857   1.679  1.00  0.00    -0.269 OA
BRANCH  11  14
ATOM     14  C   UNL     1      -2.193  -0.038   0.127  1.00  0.00     0.082 A 
ATOM     15  C   UNL     1      -3.309   0.601   0.696  1.00  0.00     0.026 A 
ATOM     16  C   UNL     1      -2.394  -1.090  -0.793  1.00  0.00     0.128 A 
ATOM     17  C   UNL     1      -4.611   0.224   0.337  1.00  0.00    -0.017 A 
ATOM     18  C   UNL     1      -3.696  -1.465  -1.157  1.00  0.00     0.055 A 
ATOM     19  C   UNL     1      -5.724   0.871   0.897  1.00  0.00     0.009 A 
ATOM     20  C   UNL     1      -4.806  -0.816  -0.601  1.00  0.00    -0.015 A 
ATOM     21  C   UNL     1      -7.017   0.488   0.530  1.00  0.00     0.001 A 
ATOM     22  C   UNL     1      -6.109  -1.192  -0.962  1.00  0.00     0.009 A 
ATOM     23  C   UNL     1      -7.209  -0.540  -0.397  1.00  0.00     0.001 A 
BRANCH  16  24
ATOM     24  O   UNL     1      -1.307  -1.782  -1.327  1.00  0.00    -0.507 OA
ATOM     25  H   UNL     1      -1.429  -2.544  -1.982  1.00  0.00     0.293 HD
ENDBRANCH  16  24
ENDBRANCH  11  14
ENDBRANCH   4  10
TORSDOF 5
