REMARK SMILES O=C(CSc1nc2ccc([N+](=O)[O-])cc2s1)c1ccc2ccccc2c1
REMARK SMILES IDX 4 1 3 2 2 3 1 4 17 5 18 6 26 7 19 8 25 9 20 10 24 11 21 12
REMARK SMILES IDX 23 13 22 14 5 15 6 16 16 17 7 18 15 19 8 20 14 21 9 22 10 23
REMARK SMILES IDX 11 24 12 25 13 26
REMARK H PARENT
ROOT
ATOM      1  S   UNL     1       0.492   2.743  -1.442  1.00  0.00    -0.087 SA
ENDROOT
BRANCH   1   2
ATOM      2  C   UNL     1      -0.164   1.520  -2.632  1.00  0.00     0.158 C 
BRANCH   2   3
ATOM      3  C   UNL     1      -0.755   0.329  -1.927  1.00  0.00     0.173 C 
ATOM      4  O   UNL     1      -0.185  -0.787  -2.073  1.00  0.00    -0.293 OA
BRANCH   3   5
ATOM      5  C   UNL     1      -1.959   0.427  -1.056  1.00  0.00     0.019 A 
ATOM      6  C   UNL     1      -2.744   1.597  -1.015  1.00  0.00     0.012 A 
ATOM      7  C   UNL     1      -2.329  -0.666  -0.249  1.00  0.00     0.020 A 
ATOM      8  C   UNL     1      -3.866   1.676  -0.187  1.00  0.00     0.009 A 
ATOM      9  C   UNL     1      -3.454  -0.594   0.585  1.00  0.00    -0.018 A 
ATOM     10  C   UNL     1      -4.230   0.589   0.617  1.00  0.00    -0.018 A 
ATOM     11  C   UNL     1      -3.819  -1.684   1.392  1.00  0.00     0.009 A 
ATOM     12  C   UNL     1      -5.355   0.660   1.453  1.00  0.00     0.009 A 
ATOM     13  C   UNL     1      -4.941  -1.600   2.220  1.00  0.00     0.001 A 
ATOM     14  C   UNL     1      -5.707  -0.432   2.251  1.00  0.00     0.001 A 
ENDBRANCH   3   5
ENDBRANCH   2   3
ENDBRANCH   1   2
BRANCH   1  15
ATOM     15  C   UNL     1       1.822   1.694  -0.861  1.00  0.00     0.151 A 
ATOM     16  N   UNL     1       3.029   1.619  -1.472  1.00  0.00    -0.230 NA
ATOM     17  S   UNL     1       1.721   0.701   0.506  1.00  0.00    -0.107 S 
ATOM     18  C   UNL     1       3.844   0.751  -0.820  1.00  0.00     0.083 A 
ATOM     19  C   UNL     1       3.291   0.147   0.297  1.00  0.00     0.062 A 
ATOM     20  C   UNL     1       5.149   0.454  -1.207  1.00  0.00     0.037 A 
ATOM     21  C   UNL     1       3.999  -0.767   1.072  1.00  0.00     0.107 A 
ATOM     22  C   UNL     1       5.889  -0.466  -0.445  1.00  0.00     0.088 A 
ATOM     23  C   UNL     1       5.324  -1.084   0.700  1.00  0.00     0.270 A 
BRANCH  23  24
ATOM     24  N   UNL     1       6.088  -2.025   1.476  1.00  0.00     0.062 N 
ATOM     25  O   UNL     1       7.260  -2.312   1.155  1.00  0.00    -0.258 OA
ATOM     26  O   UNL     1       5.538  -2.625   2.585  1.00  0.00    -0.258 OA
ENDBRANCH  23  24
ENDBRANCH   1  15
TORSDOF 5
