REMARK SMILES C=CCN=c1nc[nH]c2sc(SC)nc12
REMARK SMILES IDX 4 1 5 2 8 3 7 4 9 5 6 6 10 7 15 8 11 9 14 10 12 12 13 13
REMARK SMILES IDX 3 14 2 15 1 16
REMARK H PARENT 8 11
ROOT
ATOM      1  N   UNL     1       1.801   0.093   0.619  1.00  0.00    -0.261 NA
ENDROOT
BRANCH   1   2
ATOM      2  C   UNL     1       0.941   1.067   0.511  1.00  0.00     0.178 A 
ATOM      3  N   UNL     1      -0.788   3.244   0.365  1.00  0.00    -0.336 N 
ATOM      4  C   UNL     1       0.431   3.360   0.963  1.00  0.00     0.200 A 
ATOM      5  C   UNL     1      -1.144   2.048  -0.158  1.00  0.00     0.126 A 
ATOM      6  N   UNL     1       1.272   2.285   1.030  1.00  0.00    -0.217 NA
ATOM      7  S   UNL     1      -2.582   1.666  -0.936  1.00  0.00    -0.089 S 
ATOM      8  C   UNL     1      -0.319   0.942  -0.109  1.00  0.00     0.143 A 
ATOM      9  C   UNL     1      -2.076   0.069  -1.181  1.00  0.00     0.152 A 
ATOM     10  N   UNL     1      -0.839  -0.173  -0.684  1.00  0.00    -0.224 NA
ATOM     11  H   UNL     1      -1.433   4.064   0.313  1.00  0.00     0.168 HD
BRANCH   9  12
ATOM     12  S   UNL     1      -3.057  -1.178  -2.007  1.00  0.00    -0.099 SA
ATOM     13  C   UNL     1      -3.830  -1.753  -0.464  1.00  0.00     0.093 C 
ENDBRANCH   9  12
ENDBRANCH   1   2
BRANCH   1  14
ATOM     14  C   UNL     1       1.659  -1.281   0.142  1.00  0.00     0.171 C 
BRANCH  14  15
ATOM     15  C   UNL     1       2.892  -2.062   0.485  1.00  0.00    -0.011 C 
ATOM     16  C   UNL     1       4.072  -1.787  -0.078  1.00  0.00     0.006 C 
ENDBRANCH  14  15
ENDBRANCH   1  14
TORSDOF 4
