REMARK SMILES CC(=O)Oc1c(C)c(OC(C)=O)c2c(c1C(C)=O)O[C@H]1C=C(O)[C@@H](C(C)=O)C(=O)[C@]21C
REMARK SMILES IDX 22 1 21 2 20 3 19 4 14 5 15 6 5 7 6 8 7 9 8 10 13 11 30 12
REMARK SMILES IDX 31 13 28 14 29 15 24 16 23 17 25 19 26 20 27 21 16 22 17 23
REMARK SMILES IDX 18 24 9 25 10 26 11 27 12 28 4 29 2 30 1 31 3 32
REMARK H PARENT 23 18
ROOT
ATOM      1  C   UNL     1       4.123  -1.134  -0.675  1.00  0.00     0.110 C 
ATOM      2  C   UNL     1       3.053  -1.919  -0.939  1.00  0.00     0.061 C 
ATOM      3  C   UNL     1       1.793  -1.598  -0.211  1.00  0.00     0.218 C 
ATOM      4  O   UNL     1       0.582  -2.246  -0.564  1.00  0.00    -0.483 OA
ATOM      5  C   UNL     1      -0.436  -1.394  -0.141  1.00  0.00     0.142 A 
ATOM      6  C   UNL     1      -1.791  -1.710  -0.019  1.00  0.00     0.103 A 
ATOM      7  C   UNL     1      -2.673  -0.682   0.410  1.00  0.00     0.152 A 
ATOM      8  C   UNL     1      -2.169   0.604   0.747  1.00  0.00     0.036 A 
ATOM      9  C   UNL     1      -3.117   1.664   1.243  1.00  0.00     0.052 C 
ATOM     10  C   UNL     1      -0.795   0.898   0.551  1.00  0.00     0.145 A 
ATOM     11  C   UNL     1       0.057  -0.140   0.173  1.00  0.00     0.056 A 
ATOM     12  C   UNL     1       1.482  -0.095  -0.300  1.00  0.00     0.100 C 
ATOM     13  C   UNL     1       1.482   0.458  -1.749  1.00  0.00     0.029 C 
ATOM     14  C   UNL     1       2.579   0.565   0.500  1.00  0.00     0.165 C 
ATOM     15  O   UNL     1       2.338   1.466   1.289  1.00  0.00    -0.297 OA
ATOM     16  C   UNL     1       4.019   0.070   0.289  1.00  0.00     0.189 C 
ENDROOT
BRANCH   1  17
ATOM     17  O   UNL     1       5.355  -1.426  -1.261  1.00  0.00    -0.511 OA
ATOM     18  H   UNL     1       5.474  -2.209  -1.893  1.00  0.00     0.293 HD
ENDBRANCH   1  17
BRANCH  16  19
ATOM     19  C   UNL     1       4.881   1.209  -0.198  1.00  0.00     0.147 C 
ATOM     20  C   UNL     1       6.033   1.694   0.630  1.00  0.00     0.089 C 
ATOM     21  O   UNL     1       4.643   1.743  -1.272  1.00  0.00    -0.299 OA
ENDBRANCH  16  19
BRANCH   6  22
ATOM     22  C   UNL     1      -2.243  -3.095  -0.290  1.00  0.00     0.167 C 
ATOM     23  C   UNL     1      -3.224  -3.794   0.601  1.00  0.00     0.094 C 
ATOM     24  O   UNL     1      -1.772  -3.718  -1.279  1.00  0.00    -0.294 OA
ENDBRANCH   6  22
BRANCH  10  25
ATOM     25  O   UNL     1      -0.277   2.186   0.722  1.00  0.00    -0.426 OA
BRANCH  25  26
ATOM     26  C   UNL     1      -0.681   3.284  -0.044  1.00  0.00     0.308 C 
ATOM     27  C   UNL     1      -0.143   4.636   0.275  1.00  0.00     0.139 C 
ATOM     28  O   UNL     1      -1.438   3.131  -1.041  1.00  0.00    -0.252 OA
ENDBRANCH  25  26
ENDBRANCH  10  25
BRANCH   7  29
ATOM     29  O   UNL     1      -4.054  -0.904   0.491  1.00  0.00    -0.425 OA
BRANCH  29  30
ATOM     30  C   UNL     1      -4.843  -1.213  -0.623  1.00  0.00     0.308 C 
ATOM     31  C   UNL     1      -6.290  -1.514  -0.435  1.00  0.00     0.139 C 
ATOM     32  O   UNL     1      -4.356  -1.186  -1.786  1.00  0.00    -0.252 OA
ENDBRANCH  29  30
ENDBRANCH   7  29
TORSDOF 7
