REMARK SMILES Cc1ncc([N+](=O)[O-])n1CCOC(N)=O
REMARK SMILES IDX 10 1 9 2 2 3 3 4 4 5 5 6 1 7 6 8 7 9 8 10 11 11 12 12 13 13
REMARK SMILES IDX 14 14 15 15
REMARK H PARENT 14 16 14 17
ROOT
ATOM      1  C   UNL     1       0.120   0.065  -0.565  1.00  0.00     0.286 C 
ENDROOT
BRANCH   1   2
ATOM      2  N   UNL     1      -1.238  -0.159  -0.054  1.00  0.00    -0.207 N 
ATOM      3  C   UNL     1      -1.998  -1.267  -0.235  1.00  0.00     0.193 A 
ATOM      4  N   UNL     1      -3.192  -1.199   0.394  1.00  0.00    -0.213 NA
ATOM      5  C   UNL     1      -3.181  -0.002   1.011  1.00  0.00     0.218 A 
ATOM      6  C   UNL     1      -1.987   0.632   0.748  1.00  0.00     0.342 A 
ATOM      7  C   UNL     1      -1.589  -2.451  -1.054  1.00  0.00     0.117 C 
BRANCH   6   8
ATOM      8  N   UNL     1      -1.616   1.921   1.266  1.00  0.00    -0.026 N 
ATOM      9  O   UNL     1      -0.489   2.409   1.052  1.00  0.00    -0.358 OA
ATOM     10  O   UNL     1      -2.507   2.625   2.042  1.00  0.00    -0.358 OA
ENDBRANCH   6   8
ENDBRANCH   1   2
BRANCH   1  11
ATOM     11  C   UNL     1       1.158  -0.345   0.482  1.00  0.00     0.281 C 
BRANCH  11  12
ATOM     12  O   UNL     1       2.478  -0.202  -0.038  1.00  0.00    -0.446 OA
BRANCH  12  13
ATOM     13  C   UNL     1       3.120   1.033  -0.183  1.00  0.00     0.404 C 
ATOM     14  N   UNL     1       4.424   1.083  -0.755  1.00  0.00    -0.335 N 
ATOM     15  O   UNL     1       2.561   2.099   0.193  1.00  0.00    -0.225 OA
ATOM     16  H   UNL     1       4.894   0.205  -1.067  1.00  0.00     0.163 HD
ATOM     17  H   UNL     1       4.918   1.996  -0.869  1.00  0.00     0.163 HD
ENDBRANCH  12  13
ENDBRANCH  11  12
ENDBRANCH   1  11
TORSDOF 5
