REMARK SMILES NC(=O)C(=CNc1nc(-c2ccc(Cl)c(Cl)c2)cs1)C(N)=O
REMARK SMILES IDX 5 1 4 2 2 3 1 4 3 7 20 8 21 9 22 10 6 13 7 15 8 16 19 17
REMARK SMILES IDX 9 18 18 19 10 20 11 21 17 22 12 23 15 24 13 25 16 26 14 27
REMARK H PARENT 1 5 1 6 21 11 21 12 6 14
ROOT
ATOM      1  C   UNL     1      -2.530  -0.096  -0.974  1.00  0.00     0.104 C 
ENDROOT
BRANCH   1   2
ATOM      2  C   UNL     1      -3.792   0.076  -0.528  1.00  0.00     0.120 C 
BRANCH   2   3
ATOM      3  C   UNL     1      -4.071   0.494   0.865  1.00  0.00     0.255 C 
ATOM      4  N   UNL     1      -5.085  -0.160   1.628  1.00  0.00    -0.365 N 
ATOM      5  H   UNL     1      -5.298   0.155   2.600  1.00  0.00     0.159 HD
ATOM      6  H   UNL     1      -5.607  -0.976   1.236  1.00  0.00     0.159 HD
ATOM      7  O   UNL     1      -3.428   1.449   1.380  1.00  0.00    -0.269 OA
ENDBRANCH   2   3
BRANCH   2   8
ATOM      8  C   UNL     1      -4.931  -0.139  -1.458  1.00  0.00     0.255 C 
ATOM      9  N   UNL     1      -6.204   0.466  -1.217  1.00  0.00    -0.365 N 
ATOM     10  O   UNL     1      -4.784  -0.857  -2.484  1.00  0.00    -0.269 OA
ATOM     11  H   UNL     1      -6.347   1.146  -0.438  1.00  0.00     0.159 HD
ATOM     12  H   UNL     1      -7.004   0.274  -1.860  1.00  0.00     0.159 HD
ENDBRANCH   2   8
ENDBRANCH   1   2
BRANCH   1  13
ATOM     13  N   UNL     1      -1.380  -0.021  -0.115  1.00  0.00    -0.337 N 
ATOM     14  H   UNL     1      -1.492  -0.052   0.923  1.00  0.00     0.168 HD
BRANCH  13  15
ATOM     15  C   UNL     1      -0.042   0.001  -0.626  1.00  0.00     0.187 A 
ATOM     16  N   UNL     1       1.044  -0.017   0.175  1.00  0.00    -0.220 NA
ATOM     17  S   UNL     1       0.390   0.075  -2.250  1.00  0.00    -0.105 S 
ATOM     18  C   UNL     1       2.209   0.026  -0.531  1.00  0.00     0.084 A 
ATOM     19  C   UNL     1       2.039   0.079  -1.919  1.00  0.00     0.097 A 
BRANCH  18  20
ATOM     20  C   UNL     1       3.529   0.006   0.153  1.00  0.00     0.003 A 
ATOM     21  C   UNL     1       3.604  -0.342   1.514  1.00  0.00     0.012 A 
ATOM     22  C   UNL     1       4.717   0.341  -0.526  1.00  0.00     0.032 A 
ATOM     23  C   UNL     1       4.835  -0.365   2.175  1.00  0.00     0.023 A 
ATOM     24  C   UNL     1       5.950   0.318   0.137  1.00  0.00     0.060 A 
ATOM     25  C   UNL     1       6.010  -0.038   1.493  1.00  0.00     0.059 A 
ATOM     26  Cl  UNL     1       7.404   0.747  -0.755  1.00  0.00    -0.083 Cl
ATOM     27  Cl  UNL     1       7.539  -0.080   2.361  1.00  0.00    -0.083 Cl
ENDBRANCH  18  20
ENDBRANCH  13  15
ENDBRANCH   1  13
TORSDOF 6
