REMARK SMILES COc1ccccc1NC(=O)c1cc2cc(Br)ccc2cc1O
REMARK SMILES IDX 9 1 10 2 11 3 8 5 3 6 4 7 5 8 7 9 6 10 2 11 1 12 12 13 13 14
REMARK SMILES IDX 22 15 14 16 21 17 15 18 20 19 16 20 19 21 18 22 17 23 23 24
REMARK H PARENT 9 4 23 25
ROOT
ATOM      1  N   UNL     1      -1.175  -0.886   0.911  1.00  0.00    -0.319 N 
ATOM      2  C   UNL     1      -0.297   0.220   0.648  1.00  0.00     0.259 C 
ATOM      3  O   UNL     1      -0.639   1.385   0.992  1.00  0.00    -0.269 OA
ATOM      4  H   UNL     1      -0.746  -1.826   1.063  1.00  0.00     0.170 HD
ENDROOT
BRANCH   1   5
ATOM      5  C   UNL     1      -2.570  -0.724   1.215  1.00  0.00     0.084 A 
ATOM      6  C   UNL     1      -3.399   0.113   0.436  1.00  0.00     0.142 A 
ATOM      7  C   UNL     1      -4.761   0.242   0.776  1.00  0.00     0.048 A 
ATOM      8  C   UNL     1      -5.291  -0.472   1.853  1.00  0.00     0.004 A 
ATOM      9  C   UNL     1      -3.124  -1.456   2.276  1.00  0.00     0.030 A 
ATOM     10  C   UNL     1      -4.476  -1.325   2.597  1.00  0.00     0.002 A 
BRANCH   6  11
ATOM     11  O   UNL     1      -2.849   0.777  -0.673  1.00  0.00    -0.495 OA
ATOM     12  C   UNL     1      -3.574   1.646  -1.537  1.00  0.00     0.278 C 
ENDBRANCH   6  11
ENDBRANCH   1   5
BRANCH   2  13
ATOM     13  C   UNL     1       1.033   0.003   0.032  1.00  0.00     0.082 A 
ATOM     14  C   UNL     1       2.102   0.843   0.391  1.00  0.00     0.026 A 
ATOM     15  C   UNL     1       1.245  -1.015  -0.923  1.00  0.00     0.128 A 
ATOM     16  C   UNL     1       3.376   0.659  -0.166  1.00  0.00    -0.016 A 
ATOM     17  C   UNL     1       2.519  -1.204  -1.476  1.00  0.00     0.055 A 
ATOM     18  C   UNL     1       4.445   1.491   0.202  1.00  0.00     0.024 A 
ATOM     19  C   UNL     1       3.587  -0.377  -1.105  1.00  0.00    -0.015 A 
ATOM     20  C   UNL     1       5.712   1.297  -0.358  1.00  0.00     0.018 A 
ATOM     21  C   UNL     1       4.862  -0.562  -1.661  1.00  0.00     0.010 A 
ATOM     22  C   UNL     1       5.919   0.273  -1.287  1.00  0.00     0.016 A 
ATOM     23  Br  UNL     1       7.162   2.433   0.147  1.00  0.00    -0.051 Br
BRANCH  15  24
ATOM     24  O   UNL     1       0.188  -1.823  -1.342  1.00  0.00    -0.507 OA
ATOM     25  H   UNL     1       0.317  -2.554  -2.031  1.00  0.00     0.293 HD
ENDBRANCH  15  24
ENDBRANCH   2  13
TORSDOF 4
