REMARK SMILES O=C(Cn1ccc(O)nc1=O)Nc1ccc(C(=O)[O-])c(O)c1
REMARK SMILES IDX 2 1 1 2 12 3 3 5 4 6 7 7 6 8 9 9 5 10 10 11 11 12 8 13 13 15
REMARK SMILES IDX 14 16 22 17 15 18 20 19 16 20 21 21 17 23 18 24 19 25
REMARK H PARENT 12 4 8 14 21 22
ROOT
ATOM      1  C   UNL     1       0.576   1.540   0.950  1.00  0.00     0.244 C 
ATOM      2  O   UNL     1       0.134   1.405   2.123  1.00  0.00    -0.273 OA
ATOM      3  N   UNL     1      -0.251   1.233  -0.183  1.00  0.00    -0.324 N 
ATOM      4  H   UNL     1       0.029   1.629  -1.110  1.00  0.00     0.170 HD
ENDROOT
BRANCH   1   5
ATOM      5  C   UNL     1       1.975   2.033   0.743  1.00  0.00     0.227 C 
BRANCH   5   6
ATOM      6  N   UNL     1       2.838   0.928   0.299  1.00  0.00    -0.290 N 
ATOM      7  C   UNL     1       4.398  -1.179  -0.548  1.00  0.00     0.217 A 
ATOM      8  C   UNL     1       3.849  -0.311  -1.487  1.00  0.00     0.086 A 
ATOM      9  N   UNL     1       4.153  -0.983   0.773  1.00  0.00    -0.157 NA
ATOM     10  C   UNL     1       3.060   0.745  -1.038  1.00  0.00     0.097 A 
ATOM     11  C   UNL     1       3.382   0.050   1.203  1.00  0.00     0.351 A 
ATOM     12  O   UNL     1       3.173   0.185   2.439  1.00  0.00    -0.246 OA
BRANCH   7  13
ATOM     13  O   UNL     1       5.192  -2.243  -0.963  1.00  0.00    -0.493 OA
ATOM     14  H   UNL     1       5.597  -2.882  -0.290  1.00  0.00     0.295 HD
ENDBRANCH   7  13
ENDBRANCH   5   6
ENDBRANCH   1   5
BRANCH   3  15
ATOM     15  C   UNL     1      -1.482   0.495  -0.108  1.00  0.00     0.044 A 
ATOM     16  C   UNL     1      -1.656  -0.546   0.817  1.00  0.00     0.027 A 
ATOM     17  C   UNL     1      -2.513   0.784  -1.010  1.00  0.00     0.073 A 
ATOM     18  C   UNL     1      -2.848  -1.272   0.846  1.00  0.00     0.016 A 
ATOM     19  C   UNL     1      -3.722   0.079  -0.976  1.00  0.00     0.126 A 
ATOM     20  C   UNL     1      -3.889  -0.984  -0.054  1.00  0.00     0.039 A 
BRANCH  19  21
ATOM     21  O   UNL     1      -4.737   0.487  -1.843  1.00  0.00    -0.507 OA
ATOM     22  H   UNL     1      -5.692   0.162  -1.775  1.00  0.00     0.293 HD
ENDBRANCH  19  21
BRANCH  20  23
ATOM     23  C   UNL     1      -5.098  -1.835  -0.035  1.00  0.00     0.075 C 
ATOM     24  O   UNL     1      -5.509  -2.324   1.051  1.00  0.00    -0.545 OA
ATOM     25  O   UNL     1      -5.756  -2.164  -1.213  1.00  0.00    -0.545 OA
ENDBRANCH  20  23
ENDBRANCH   3  15
TORSDOF 6
