REMARK SMILES Cn1ncc2c(=Nc3ccccc3Cl)[nH]c(=Nc3ccccc3Cl)[nH]c21
REMARK SMILES IDX 25 1 16 2 15 3 6 4 5 5 4 6 3 7 2 8 1 9 26 10 17 13 18 14
REMARK SMILES IDX 19 15 23 16 20 17 22 18 21 19 24 20 7 21 8 22 9 23 13 24
REMARK SMILES IDX 10 25 12 26 11 27 14 28
REMARK H PARENT 25 11 15 12
ROOT
ATOM      1  N   UNL     1      -0.927   2.179  -0.359  1.00  0.00    -0.310 N 
ATOM      2  C   UNL     1      -1.547   0.965  -0.465  1.00  0.00     0.207 A 
ATOM      3  N   UNL     1      -0.832  -0.194  -0.237  1.00  0.00    -0.310 N 
ATOM      4  C   UNL     1       0.493  -0.174   0.111  1.00  0.00     0.146 A 
ATOM      5  C   UNL     1       1.103   1.086   0.238  1.00  0.00     0.080 A 
ATOM      6  C   UNL     1       2.356   1.553   0.617  1.00  0.00     0.149 A 
ATOM      7  N   UNL     1       2.345   2.909   0.579  1.00  0.00    -0.179 NA
ATOM      8  N   UNL     1       1.139   3.303   0.192  1.00  0.00    -0.252 N 
ATOM      9  C   UNL     1       0.733   4.697   0.064  1.00  0.00     0.176 C 
ATOM     10  C   UNL     1       0.381   2.213  -0.008  1.00  0.00     0.141 A 
ATOM     11  H   UNL     1      -1.455   3.064  -0.531  1.00  0.00     0.171 HD
ATOM     12  H   UNL     1      -1.290  -1.127  -0.348  1.00  0.00     0.171 HD
ENDROOT
BRANCH   2  13
ATOM     13  N   UNL     1      -2.808   0.934  -0.797  1.00  0.00    -0.213 NA
BRANCH  13  14
ATOM     14  C   UNL     1      -3.629  -0.238  -0.894  1.00  0.00     0.086 A 
ATOM     15  C   UNL     1      -4.154  -0.600  -2.142  1.00  0.00     0.030 A 
ATOM     16  C   UNL     1      -3.970  -0.992   0.249  1.00  0.00     0.066 A 
ATOM     17  C   UNL     1      -4.973  -1.726  -2.263  1.00  0.00     0.002 A 
ATOM     18  C   UNL     1      -4.791  -2.119   0.119  1.00  0.00     0.023 A 
ATOM     19  C   UNL     1      -5.286  -2.488  -1.135  1.00  0.00     0.002 A 
ATOM     20  Cl  UNL     1      -3.417  -0.525   1.852  1.00  0.00    -0.082 Cl
ENDBRANCH  13  14
ENDBRANCH   2  13
BRANCH   4  21
ATOM     21  N   UNL     1       1.109  -1.309   0.302  1.00  0.00    -0.229 NA
BRANCH  21  22
ATOM     22  C   UNL     1       2.497  -1.505   0.595  1.00  0.00     0.084 A 
ATOM     23  C   UNL     1       2.883  -1.844   1.899  1.00  0.00     0.030 A 
ATOM     24  C   UNL     1       3.467  -1.428  -0.422  1.00  0.00     0.066 A 
ATOM     25  C   UNL     1       4.231  -2.065   2.197  1.00  0.00     0.002 A 
ATOM     26  C   UNL     1       4.815  -1.651  -0.116  1.00  0.00     0.023 A 
ATOM     27  C   UNL     1       5.196  -1.966   1.191  1.00  0.00     0.002 A 
ATOM     28  Cl  UNL     1       3.015  -1.053  -2.080  1.00  0.00    -0.082 Cl
ENDBRANCH  21  22
ENDBRANCH   4  21
TORSDOF 4
