REMARK SMILES c1ccc2c(c1)Nc1cc3ccccc3cc1S2
REMARK SMILES IDX 1 1 2 2 3 3 4 4 5 5 6 6 7 7 8 8 9 9 10 10 11 11 12 12 13 13
REMARK SMILES IDX 14 14 15 15 16 16 17 17 18 18
REMARK H PARENT 7 19
ROOT
ATOM      1  C   UNL     1       4.609   0.965  -0.609  1.00  0.00     0.002 A 
ATOM      2  C   UNL     1       4.633   1.075   0.785  1.00  0.00     0.001 A 
ATOM      3  C   UNL     1       3.629   0.477   1.552  1.00  0.00     0.017 A 
ATOM      4  C   UNL     1       2.596  -0.229   0.925  1.00  0.00     0.036 A 
ATOM      5  C   UNL     1       2.545  -0.306  -0.478  1.00  0.00     0.053 A 
ATOM      6  C   UNL     1       3.567   0.280  -1.240  1.00  0.00     0.027 A 
ATOM      7  N   UNL     1       1.388  -0.859  -1.127  1.00  0.00    -0.354 N 
ATOM      8  C   UNL     1       0.100  -0.763  -0.498  1.00  0.00     0.053 A 
ATOM      9  C   UNL     1      -1.050  -0.584  -1.280  1.00  0.00     0.036 A 
ATOM     10  C   UNL     1      -2.286  -0.319  -0.672  1.00  0.00    -0.016 A 
ATOM     11  C   UNL     1      -3.439  -0.127  -1.450  1.00  0.00     0.009 A 
ATOM     12  C   UNL     1      -4.663   0.147  -0.834  1.00  0.00     0.001 A 
ATOM     13  C   UNL     1      -4.747   0.233   0.559  1.00  0.00     0.001 A 
ATOM     14  C   UNL     1      -3.606   0.046   1.345  1.00  0.00     0.009 A 
ATOM     15  C   UNL     1      -2.370  -0.228   0.739  1.00  0.00    -0.017 A 
ATOM     16  C   UNL     1      -1.221  -0.427   1.518  1.00  0.00     0.026 A 
ATOM     17  C   UNL     1       0.003  -0.712   0.904  1.00  0.00     0.036 A 
ATOM     18  S   UNL     1       1.420  -1.158   1.912  1.00  0.00    -0.086 SA
ATOM     19  H   UNL     1       1.433  -1.051  -2.154  1.00  0.00     0.167 HD
ENDROOT
TORSDOF 0
