REMARK SMILES O=C(Nc1ccccc1)Nc1ccccn1
REMARK SMILES IDX 1 1 2 2 3 3 10 4 4 7 5 8 9 9 6 10 8 11 7 12 11 13 12 14
REMARK SMILES IDX 16 15 13 16 15 17 14 18
REMARK H PARENT 3 5 10 6
ROOT
ATOM      1  O   UNL     1       0.211  -1.013  -0.322  1.00  0.00    -0.248 OA
ATOM      2  C   UNL     1       0.047   0.237  -0.302  1.00  0.00     0.324 C 
ATOM      3  N   UNL     1      -1.276   0.792  -0.364  1.00  0.00    -0.308 N 
ATOM      4  N   UNL     1       1.180   1.121  -0.262  1.00  0.00    -0.292 N 
ATOM      5  H   UNL     1      -1.368   1.797  -0.634  1.00  0.00     0.171 HD
ATOM      6  H   UNL     1       0.989   2.149  -0.272  1.00  0.00     0.173 HD
ENDROOT
BRANCH   3   7
ATOM      7  C   UNL     1      -2.482   0.026  -0.192  1.00  0.00     0.042 A 
ATOM      8  C   UNL     1      -2.545  -1.054   0.709  1.00  0.00     0.026 A 
ATOM      9  C   UNL     1      -3.640   0.400  -0.892  1.00  0.00     0.026 A 
ATOM     10  C   UNL     1      -3.737  -1.766   0.874  1.00  0.00     0.002 A 
ATOM     11  C   UNL     1      -4.830  -0.315  -0.725  1.00  0.00     0.002 A 
ATOM     12  C   UNL     1      -4.878  -1.399   0.154  1.00  0.00     0.000 A 
ENDBRANCH   3   7
BRANCH   4  13
ATOM     13  C   UNL     1       2.551   0.688  -0.201  1.00  0.00     0.133 A 
ATOM     14  C   UNL     1       3.582   1.639  -0.176  1.00  0.00     0.047 A 
ATOM     15  N   UNL     1       2.866  -0.638  -0.162  1.00  0.00    -0.239 NA
ATOM     16  C   UNL     1       4.911   1.212  -0.115  1.00  0.00     0.005 A 
ATOM     17  C   UNL     1       4.153  -1.073  -0.102  1.00  0.00     0.113 A 
ATOM     18  C   UNL     1       5.201  -0.152  -0.077  1.00  0.00     0.020 A 
ENDBRANCH   4  13
TORSDOF 2
