REMARK SMILES Oc1nc(=[SH2])c2ncn(-c3ccccc3)c2[nH]1
REMARK SMILES IDX 2 1 3 2 4 3 6 4 7 5 8 6 9 7 16 8 17 9 1 11 5 13 10 16 11 17
REMARK SMILES IDX 15 18 12 19 14 20 13 21
REMARK H PARENT 17 10 1 12 5 14 5 15
ROOT
ATOM      1  C   UNL     1       2.515  -1.538  -0.157  1.00  0.00     0.293 A 
ATOM      2  N   UNL     1       3.501  -0.639   0.162  1.00  0.00    -0.189 NA
ATOM      3  C   UNL     1       3.216   0.663   0.457  1.00  0.00     0.116 A 
ATOM      4  C   UNL     1       1.880   1.055   0.411  1.00  0.00     0.137 A 
ATOM      5  N   UNL     1       1.326   2.249   0.700  1.00  0.00    -0.232 NA
ATOM      6  C   UNL     1      -0.003   2.021   0.518  1.00  0.00     0.206 A 
ATOM      7  N   UNL     1      -0.283   0.750   0.128  1.00  0.00    -0.285 N 
ATOM      8  C   UNL     1       0.921   0.159   0.071  1.00  0.00     0.149 A 
ATOM      9  N   UNL     1       1.206  -1.142  -0.195  1.00  0.00    -0.293 N 
ATOM     10  H   UNL     1       0.455  -1.836  -0.403  1.00  0.00     0.173 HD
ENDROOT
BRANCH   1  11
ATOM     11  O   UNL     1       2.846  -2.860  -0.438  1.00  0.00    -0.480 OA
ATOM     12  H   UNL     1       3.809  -3.171  -0.412  1.00  0.00     0.296 HD
ENDBRANCH   1  11
BRANCH   3  13
ATOM     13  S   UNL     1       4.409   1.679   0.846  1.00  0.00    -0.187 S 
ATOM     14  H   UNL     1       3.808   2.876   1.228  1.00  0.00     0.095 HD
ATOM     15  H   UNL     1       4.902   1.157   2.039  1.00  0.00     0.095 HD
ENDBRANCH   3  13
BRANCH   7  16
ATOM     16  C   UNL     1      -1.580   0.205  -0.164  1.00  0.00     0.049 A 
ATOM     17  C   UNL     1      -1.785  -0.581  -1.311  1.00  0.00     0.027 A 
ATOM     18  C   UNL     1      -2.670   0.491   0.674  1.00  0.00     0.027 A 
ATOM     19  C   UNL     1      -3.054  -1.093  -1.598  1.00  0.00     0.002 A 
ATOM     20  C   UNL     1      -3.938  -0.023   0.385  1.00  0.00     0.002 A 
ATOM     21  C   UNL     1      -4.129  -0.817  -0.749  1.00  0.00     0.000 A 
ENDBRANCH   7  16
TORSDOF 3
