REMARK SMILES Cc1ccc(NC(=O)Nc2cccnc2)cc1NC(=O)Nc1cccnc1
REMARK SMILES IDX 1 1 2 2 3 3 4 4 5 5 16 6 17 7 18 8 19 9 21 10 20 12 22 14
REMARK SMILES IDX 23 15 27 16 24 17 26 18 25 19 6 20 7 21 9 22 8 24 10 26
REMARK SMILES IDX 11 27 15 28 12 29 14 30 13 31
REMARK H PARENT 18 11 21 13 6 23 9 25
ROOT
ATOM      1  C   UNL     1      -1.473  -4.082  -1.637  1.00  0.00     0.046 C 
ATOM      2  C   UNL     1      -0.564  -3.091  -0.963  1.00  0.00    -0.027 A 
ATOM      3  C   UNL     1       0.827  -3.258  -1.052  1.00  0.00     0.008 A 
ATOM      4  C   UNL     1       1.694  -2.355  -0.435  1.00  0.00     0.026 A 
ATOM      5  C   UNL     1       1.185  -1.264   0.286  1.00  0.00     0.044 A 
ATOM      6  C   UNL     1      -0.203  -1.114   0.410  1.00  0.00     0.052 A 
ATOM      7  C   UNL     1      -1.087  -2.007  -0.221  1.00  0.00     0.047 A 
ENDROOT
BRANCH   7   8
ATOM      8  N   UNL     1      -2.509  -1.848  -0.063  1.00  0.00    -0.307 N 
ATOM      9  C   UNL     1      -3.173  -0.577  -0.104  1.00  0.00     0.323 C 
ATOM     10  N   UNL     1      -4.568  -0.496   0.229  1.00  0.00    -0.306 N 
ATOM     11  H   UNL     1      -3.100  -2.703   0.040  1.00  0.00     0.171 HD
ATOM     12  O   UNL     1      -2.552   0.450  -0.493  1.00  0.00    -0.248 OA
ATOM     13  H   UNL     1      -5.113  -1.387   0.254  1.00  0.00     0.171 HD
BRANCH  10  14
ATOM     14  C   UNL     1      -5.280   0.737   0.427  1.00  0.00     0.061 A 
ATOM     15  C   UNL     1      -6.643   0.810   0.106  1.00  0.00     0.029 A 
ATOM     16  C   UNL     1      -4.665   1.866   0.996  1.00  0.00     0.137 A 
ATOM     17  C   UNL     1      -7.351   1.994   0.315  1.00  0.00     0.022 A 
ATOM     18  N   UNL     1      -5.377   3.008   1.194  1.00  0.00    -0.263 NA
ATOM     19  C   UNL     1      -6.692   3.097   0.862  1.00  0.00     0.111 A 
ENDBRANCH  10  14
ENDBRANCH   7   8
BRANCH   5  20
ATOM     20  N   UNL     1       2.057  -0.341   0.962  1.00  0.00    -0.308 N 
ATOM     21  C   UNL     1       3.330   0.086   0.453  1.00  0.00     0.323 C 
ATOM     22  N   UNL     1       4.213   0.833   1.303  1.00  0.00    -0.306 N 
ATOM     23  H   UNL     1       1.705   0.122   1.831  1.00  0.00     0.171 HD
ATOM     24  O   UNL     1       3.668  -0.193  -0.730  1.00  0.00    -0.248 OA
ATOM     25  H   UNL     1       4.026   0.812   2.331  1.00  0.00     0.171 HD
BRANCH  22  26
ATOM     26  C   UNL     1       5.401   1.503   0.846  1.00  0.00     0.061 A 
ATOM     27  C   UNL     1       5.468   2.114  -0.418  1.00  0.00     0.029 A 
ATOM     28  C   UNL     1       6.508   1.611   1.700  1.00  0.00     0.137 A 
ATOM     29  C   UNL     1       6.631   2.776  -0.813  1.00  0.00     0.022 A 
ATOM     30  N   UNL     1       7.630   2.262   1.292  1.00  0.00    -0.263 NA
ATOM     31  C   UNL     1       7.716   2.837   0.064  1.00  0.00     0.111 A 
ENDBRANCH  22  26
ENDBRANCH   5  20
TORSDOF 4
