REMARK SMILES CCCc1nc(NC(=O)c2ccccc2)nc(NC(=O)c2ccccc2)n1
REMARK SMILES IDX 4 1 5 2 6 3 16 4 17 5 27 6 3 7 2 8 1 9 7 10 8 11 9 13 10 14
REMARK SMILES IDX 11 15 15 16 12 17 14 18 13 19 18 20 19 21 20 23 21 24 22 25
REMARK SMILES IDX 26 26 23 27 25 28 24 29
REMARK H PARENT 7 12 18 22
ROOT
ATOM      1  C   UNL     1       0.138   1.437  -1.128  1.00  0.00     0.136 A 
ATOM      2  N   UNL     1       1.258   0.879  -0.602  1.00  0.00    -0.197 NA
ATOM      3  C   UNL     1       1.183  -0.287   0.091  1.00  0.00     0.234 A 
ATOM      4  N   UNL     1      -0.021  -0.893   0.252  1.00  0.00    -0.176 NA
ATOM      5  C   UNL     1      -1.148  -0.340  -0.267  1.00  0.00     0.234 A 
ATOM      6  N   UNL     1      -1.064   0.833  -0.949  1.00  0.00    -0.197 NA
ENDROOT
BRANCH   1   7
ATOM      7  C   UNL     1       0.220   2.745  -1.852  1.00  0.00     0.077 C 
BRANCH   7   8
ATOM      8  C   UNL     1       0.066   3.909  -0.870  1.00  0.00     0.005 C 
ATOM      9  C   UNL     1       0.148   5.252  -1.590  1.00  0.00     0.004 C 
ENDBRANCH   7   8
ENDBRANCH   1   7
BRANCH   3  10
ATOM     10  N   UNL     1       2.361  -0.897   0.640  1.00  0.00    -0.290 N 
ATOM     11  C   UNL     1       3.657  -0.273   0.654  1.00  0.00     0.258 C 
ATOM     12  H   UNL     1       2.248  -1.832   1.092  1.00  0.00     0.173 HD
ATOM     13  O   UNL     1       3.758   0.970   0.461  1.00  0.00    -0.269 OA
BRANCH  11  14
ATOM     14  C   UNL     1       4.881  -1.064   0.929  1.00  0.00     0.040 A 
ATOM     15  C   UNL     1       6.041  -0.427   1.409  1.00  0.00     0.014 A 
ATOM     16  C   UNL     1       4.916  -2.452   0.694  1.00  0.00     0.014 A 
ATOM     17  C   UNL     1       7.201  -1.164   1.665  1.00  0.00     0.001 A 
ATOM     18  C   UNL     1       6.080  -3.184   0.951  1.00  0.00     0.001 A 
ATOM     19  C   UNL     1       7.220  -2.542   1.438  1.00  0.00     0.000 A 
ENDBRANCH  11  14
ENDBRANCH   3  10
BRANCH   5  20
ATOM     20  N   UNL     1      -2.413  -0.987  -0.063  1.00  0.00    -0.290 N 
ATOM     21  C   UNL     1      -3.643  -0.558  -0.675  1.00  0.00     0.258 C 
ATOM     22  H   UNL     1      -2.420  -1.843   0.536  1.00  0.00     0.173 HD
ATOM     23  O   UNL     1      -3.613   0.218  -1.669  1.00  0.00    -0.269 OA
BRANCH  21  24
ATOM     24  C   UNL     1      -4.952  -1.046  -0.176  1.00  0.00     0.040 A 
ATOM     25  C   UNL     1      -5.099  -1.509   1.146  1.00  0.00     0.014 A 
ATOM     26  C   UNL     1      -6.079  -1.028  -1.018  1.00  0.00     0.014 A 
ATOM     27  C   UNL     1      -6.341  -1.958   1.605  1.00  0.00     0.001 A 
ATOM     28  C   UNL     1      -7.319  -1.479  -0.554  1.00  0.00     0.001 A 
ATOM     29  C   UNL     1      -7.449  -1.946   0.755  1.00  0.00     0.000 A 
ENDBRANCH  21  24
ENDBRANCH   5  20
TORSDOF 6
