REMARK SMILES Cn1ncc2c(=NCc3ccccc3)[nH]cnc21
REMARK SMILES IDX 7 1 6 2 15 3 16 4 17 5 5 6 18 7 4 8 2 9 3 10 1 12 8 13 9 14
REMARK SMILES IDX 10 15 14 16 11 17 13 18 12 19
REMARK H PARENT 15 11
ROOT
ATOM      1  N   UNL     1      -0.355  -0.119  -0.174  1.00  0.00    -0.263 NA
ENDROOT
BRANCH   1   2
ATOM      2  C   UNL     1       0.894  -0.397  -0.413  1.00  0.00     0.139 A 
ATOM      3  N   UNL     1       1.280  -1.409  -1.262  1.00  0.00    -0.331 N 
ATOM      4  C   UNL     1       2.609  -1.671  -1.496  1.00  0.00     0.200 A 
ATOM      5  N   UNL     1       3.585  -0.932  -0.888  1.00  0.00    -0.219 NA
ATOM      6  C   UNL     1       1.900   0.342   0.197  1.00  0.00     0.081 A 
ATOM      7  C   UNL     1       3.201   0.059  -0.049  1.00  0.00     0.162 A 
ATOM      8  C   UNL     1       1.916   1.412   1.071  1.00  0.00     0.149 A 
ATOM      9  N   UNL     1       3.988   0.901   0.638  1.00  0.00    -0.250 N 
ATOM     10  N   UNL     1       3.211   1.739   1.317  1.00  0.00    -0.179 NA
ATOM     11  H   UNL     1       0.576  -2.003  -1.752  1.00  0.00     0.169 HD
ATOM     12  C   UNL     1       5.442   0.972   0.600  1.00  0.00     0.176 C 
ENDBRANCH   1   2
BRANCH   1  13
ATOM     13  C   UNL     1      -1.505  -0.812  -0.747  1.00  0.00     0.180 C 
BRANCH  13  14
ATOM     14  C   UNL     1      -2.767  -0.192  -0.222  1.00  0.00    -0.027 A 
ATOM     15  C   UNL     1      -3.350   0.900  -0.887  1.00  0.00     0.005 A 
ATOM     16  C   UNL     1      -3.340  -0.655   0.974  1.00  0.00     0.005 A 
ATOM     17  C   UNL     1      -4.505   1.501  -0.376  1.00  0.00     0.000 A 
ATOM     18  C   UNL     1      -4.496  -0.052   1.481  1.00  0.00     0.000 A 
ATOM     19  C   UNL     1      -5.079   1.024   0.805  1.00  0.00     0.000 A 
ENDBRANCH  13  14
ENDBRANCH   1  13
TORSDOF 3
