REMARK SMILES CC(=O)Oc1c(C)c(OC(C)=O)c2c(c1C(C)=O)O[C@H]1C=C(O)C(=C(C)O)C(=O)[C@@]21C
REMARK SMILES IDX 24 1 28 2 29 3 30 4 31 5 13 6 8 7 6 8 7 9 5 10 15 11 14 12
REMARK SMILES IDX 19 13 20 14 21 15 22 16 25 17 26 18 27 19 23 21 9 23 10 24
REMARK SMILES IDX 11 25 12 26 16 27 17 28 18 29 4 30 2 31 1 32 3 33
REMARK H PARENT 27 20 23 22
ROOT
ATOM      1  C   UNL     1       3.501  -0.411  -0.120  1.00  0.00     0.097 C 
ATOM      2  C   UNL     1       2.184   0.264  -0.079  1.00  0.00     0.184 C 
ATOM      3  O   UNL     1       1.716   0.806  -1.116  1.00  0.00    -0.293 OA
ATOM      4  C   UNL     1       1.413   0.313   1.222  1.00  0.00     0.104 C 
ATOM      5  C   UNL     1       1.833   1.554   2.029  1.00  0.00     0.030 C 
ATOM      6  C   UNL     1      -0.079   0.285   0.972  1.00  0.00     0.056 A 
ATOM      7  C   UNL     1      -0.908   1.272   0.419  1.00  0.00     0.145 A 
ATOM      8  C   UNL     1      -2.298   1.007   0.312  1.00  0.00     0.036 A 
ATOM      9  C   UNL     1      -3.251   2.063  -0.188  1.00  0.00     0.052 C 
ATOM     10  C   UNL     1      -2.800  -0.274   0.656  1.00  0.00     0.152 A 
ATOM     11  C   UNL     1      -1.941  -1.250   1.224  1.00  0.00     0.103 A 
ATOM     12  C   UNL     1      -0.589  -0.919   1.375  1.00  0.00     0.143 A 
ATOM     13  O   UNL     1       0.381  -1.706   1.958  1.00  0.00    -0.483 OA
ATOM     14  C   UNL     1       1.608  -0.996   2.071  1.00  0.00     0.218 C 
ATOM     15  C   UNL     1       2.752  -1.900   1.687  1.00  0.00     0.065 C 
ATOM     16  C   UNL     1       3.636  -1.630   0.717  1.00  0.00     0.129 C 
ENDROOT
BRANCH   1  17
ATOM     17  C   UNL     1       4.535   0.059  -0.866  1.00  0.00     0.104 C 
ATOM     18  C   UNL     1       4.436   1.327  -1.676  1.00  0.00     0.087 C 
BRANCH  17  19
ATOM     19  O   UNL     1       5.748  -0.632  -0.889  1.00  0.00    -0.512 OA
ATOM     20  H   UNL     1       6.536  -0.311  -1.438  1.00  0.00     0.293 HD
ENDBRANCH  17  19
ENDBRANCH   1  17
BRANCH  16  21
ATOM     21  O   UNL     1       4.676  -2.532   0.480  1.00  0.00    -0.507 OA
ATOM     22  H   UNL     1       4.793  -3.379   1.025  1.00  0.00     0.293 HD
ENDBRANCH  16  21
BRANCH   7  23
ATOM     23  O   UNL     1      -0.353   2.495   0.022  1.00  0.00    -0.426 OA
BRANCH  23  24
ATOM     24  C   UNL     1      -0.427   2.994  -1.283  1.00  0.00     0.308 C 
ATOM     25  C   UNL     1       0.056   4.375  -1.569  1.00  0.00     0.139 C 
ATOM     26  O   UNL     1      -0.899   2.292  -2.219  1.00  0.00    -0.252 OA
ENDBRANCH  23  24
ENDBRANCH   7  23
BRANCH  11  27
ATOM     27  C   UNL     1      -2.461  -2.547   1.723  1.00  0.00     0.167 C 
ATOM     28  C   UNL     1      -1.653  -3.805   1.630  1.00  0.00     0.094 C 
ATOM     29  O   UNL     1      -3.594  -2.596   2.273  1.00  0.00    -0.294 OA
ENDBRANCH  11  27
BRANCH  10  30
ATOM     30  O   UNL     1      -4.157  -0.548   0.432  1.00  0.00    -0.425 OA
BRANCH  30  31
ATOM     31  C   UNL     1      -4.605  -1.582  -0.397  1.00  0.00     0.308 C 
ATOM     32  C   UNL     1      -6.066  -1.862  -0.497  1.00  0.00     0.139 C 
ATOM     33  O   UNL     1      -3.794  -2.238  -1.107  1.00  0.00    -0.252 OA
ENDBRANCH  30  31
ENDBRANCH  10  30
TORSDOF 8
