REMARK SMILES C=C(C)[C@@H]1Cc2c(ccc3c2O[C@@H]2COc4cc(OC)c(OC)cc4[C@@H]2C3=O)O1
REMARK SMILES IDX 4 1 5 2 6 3 7 4 8 5 9 6 10 7 11 8 12 9 13 10 14 11 15 12
REMARK SMILES IDX 16 13 17 14 18 15 21 16 24 17 25 18 26 19 27 20 28 21 29 22
REMARK SMILES IDX 2 23 1 24 3 25 22 26 23 27 19 28 20 29
REMARK H PARENT
ROOT
ATOM      1  C   UNL     1      -4.409   2.843   1.124  1.00  0.00     0.203 C 
ATOM      2  C   UNL     1      -2.909   2.587   0.782  1.00  0.00     0.093 C 
ATOM      3  C   UNL     1      -2.995   1.506  -0.239  1.00  0.00     0.041 A 
ATOM      4  C   UNL     1      -4.281   1.036  -0.311  1.00  0.00     0.127 A 
ATOM      5  C   UNL     1      -4.644   0.043  -1.217  1.00  0.00     0.048 A 
ATOM      6  C   UNL     1      -3.689  -0.387  -2.158  1.00  0.00     0.019 A 
ATOM      7  C   UNL     1      -2.390   0.165  -2.150  1.00  0.00     0.061 A 
ATOM      8  C   UNL     1      -2.031   1.110  -1.164  1.00  0.00     0.137 A 
ATOM      9  O   UNL     1      -0.757   1.699  -1.157  1.00  0.00    -0.485 OA
ATOM     10  C   UNL     1       0.271   1.358  -2.095  1.00  0.00     0.226 C 
ATOM     11  C   UNL     1       1.316   2.518  -2.177  1.00  0.00     0.275 C 
ATOM     12  O   UNL     1       1.248   3.252  -3.412  1.00  0.00    -0.489 OA
ATOM     13  C   UNL     1       0.072   3.344  -4.163  1.00  0.00     0.127 A 
ATOM     14  C   UNL     1      -0.215   4.509  -4.873  1.00  0.00     0.097 A 
ATOM     15  C   UNL     1      -1.457   4.641  -5.534  1.00  0.00     0.164 A 
ATOM     16  C   UNL     1      -2.392   3.587  -5.495  1.00  0.00     0.161 A 
ATOM     17  C   UNL     1      -2.064   2.389  -4.831  1.00  0.00     0.059 A 
ATOM     18  C   UNL     1      -0.823   2.269  -4.165  1.00  0.00     0.013 A 
ATOM     19  C   UNL     1      -0.357   1.002  -3.475  1.00  0.00     0.139 C 
ATOM     20  C   UNL     1      -1.458  -0.010  -3.288  1.00  0.00     0.178 C 
ATOM     21  O   UNL     1      -1.674  -0.852  -4.204  1.00  0.00    -0.293 OA
ATOM     22  O   UNL     1      -5.123   1.750   0.528  1.00  0.00    -0.485 OA
ENDROOT
BRANCH   1  23
ATOM     23  C   UNL     1      -4.888   4.153   0.524  1.00  0.00    -0.040 C 
ATOM     24  C   UNL     1      -5.316   5.136   1.325  1.00  0.00     0.011 C 
ATOM     25  C   UNL     1      -4.818   4.406  -0.976  1.00  0.00     0.043 C 
ENDBRANCH   1  23
BRANCH  16  26
ATOM     26  O   UNL     1      -3.642   3.772  -6.115  1.00  0.00    -0.493 OA
ATOM     27  C   UNL     1      -4.471   2.714  -6.593  1.00  0.00     0.278 C 
ENDBRANCH  16  26
BRANCH  15  28
ATOM     28  O   UNL     1      -1.802   5.800  -6.243  1.00  0.00    -0.493 OA
ATOM     29  C   UNL     1      -0.934   6.902  -6.473  1.00  0.00     0.278 C 
ENDBRANCH  15  28
TORSDOF 3
