REMARK SMILES CCCC[C@H]1CCC[C@@]12NC(=O)NC2=O
REMARK SMILES IDX 3 1 2 2 1 3 4 4 5 5 6 6 9 7 7 8 8 9 10 10 14 11 11 12 13 13
REMARK SMILES IDX 15 15 12 16
REMARK H PARENT 10 14 13 17
ROOT
ATOM      1  C   UNL     1       1.972   1.091   0.204  1.00  0.00     0.000 C 
ENDROOT
BRANCH   1   2
ATOM      2  C   UNL     1       2.993  -0.056   0.204  1.00  0.00    -0.003 C 
ATOM      3  C   UNL     1       4.386   0.449  -0.160  1.00  0.00     0.004 C 
ENDBRANCH   1   2
BRANCH   1   4
ATOM      4  C   UNL     1       0.580   0.658   0.704  1.00  0.00     0.006 C 
BRANCH   4   5
ATOM      5  C   UNL     1      -0.335   0.089  -0.411  1.00  0.00     0.024 C 
ATOM      6  C   UNL     1       0.032  -1.330  -0.856  1.00  0.00     0.006 C 
ATOM      7  C   UNL     1      -1.813  -0.014  -0.005  1.00  0.00     0.124 C 
ATOM      8  C   UNL     1      -1.275  -2.023  -1.252  1.00  0.00     0.003 C 
ATOM      9  C   UNL     1      -2.411  -1.050  -0.952  1.00  0.00     0.039 C 
ATOM     10  N   UNL     1      -1.979  -0.442   1.388  1.00  0.00    -0.323 N 
ATOM     11  C   UNL     1      -2.545   1.304  -0.034  1.00  0.00     0.254 C 
ATOM     12  C   UNL     1      -2.738   0.552   2.062  1.00  0.00     0.322 C 
ATOM     13  N   UNL     1      -3.103   1.636   1.229  1.00  0.00    -0.276 N 
ATOM     14  H   UNL     1      -1.624  -1.329   1.811  1.00  0.00     0.166 HD
ATOM     15  O   UNL     1      -2.659   2.043  -1.048  1.00  0.00    -0.272 OA
ATOM     16  O   UNL     1      -3.054   0.477   3.278  1.00  0.00    -0.248 OA
ATOM     17  H   UNL     1      -3.654   2.485   1.485  1.00  0.00     0.174 HD
ENDBRANCH   4   5
ENDBRANCH   1   4
TORSDOF 3
