REMARK SMILES N#Cc1cnn(-c2cccc(Cl)c2)c1-n1cccc1
REMARK SMILES IDX 3 1 4 2 5 3 6 4 14 5 2 6 1 7 15 8 16 9 19 10 17 11 18 12
REMARK SMILES IDX 7 13 8 14 13 15 9 16 11 17 10 18 12 19
REMARK H PARENT
ROOT
ATOM      1  C   UNL     1       1.690  -2.244  -0.315  1.00  0.00     0.115 A 
ATOM      2  C   UNL     1       0.737  -3.173  -0.677  1.00  0.00     0.157 A 
ATOM      3  N   UNL     1      -0.479  -2.587  -0.667  1.00  0.00    -0.173 NA
ATOM      4  N   UNL     1      -0.325  -1.319  -0.314  1.00  0.00    -0.215 N 
ATOM      5  C   UNL     1       0.988  -1.076  -0.098  1.00  0.00     0.158 A 
ENDROOT
BRANCH   1   6
ATOM      6  C   UNL     1       3.115  -2.440  -0.297  1.00  0.00     0.105 C 
ATOM      7  N   UNL     1       4.261  -2.597  -0.283  1.00  0.00    -0.192 NA
ENDBRANCH   1   6
BRANCH   5   8
ATOM      8  N   UNL     1       1.565   0.216   0.152  1.00  0.00    -0.307 N 
ATOM      9  C   UNL     1       2.592   0.482   0.982  1.00  0.00     0.093 A 
ATOM     10  C   UNL     1       1.216   1.377  -0.438  1.00  0.00     0.093 A 
ATOM     11  C   UNL     1       2.894   1.828   0.934  1.00  0.00     0.020 A 
ATOM     12  C   UNL     1       2.019   2.397   0.030  1.00  0.00     0.020 A 
ENDBRANCH   5   8
BRANCH   4  13
ATOM     13  C   UNL     1      -1.431  -0.417  -0.142  1.00  0.00     0.068 A 
ATOM     14  C   UNL     1      -1.481   0.461   0.956  1.00  0.00     0.028 A 
ATOM     15  C   UNL     1      -2.504  -0.444  -1.047  1.00  0.00     0.049 A 
ATOM     16  C   UNL     1      -2.570   1.321   1.122  1.00  0.00     0.004 A 
ATOM     17  C   UNL     1      -3.594   0.418  -0.879  1.00  0.00     0.043 A 
ATOM     18  C   UNL     1      -3.624   1.302   0.204  1.00  0.00     0.020 A 
ATOM     19  Cl  UNL     1      -4.921   0.388  -2.025  1.00  0.00    -0.084 Cl
ENDBRANCH   4  13
TORSDOF 3
