REMARK SMILES CCOC(=O)c1cn[nH]c1O
REMARK SMILES IDX 4 1 5 2 6 3 10 4 9 5 8 6 7 7 11 9 3 11 2 12 1 13
REMARK H PARENT 9 8 11 10
ROOT
ATOM      1  C   UNL     1      -0.120   0.049  -0.378  1.00  0.00     0.345 C 
ATOM      2  O   UNL     1      -0.394   1.067  -1.069  1.00  0.00    -0.246 OA
ENDROOT
BRANCH   1   3
ATOM      3  C   UNL     1       1.247  -0.154   0.119  1.00  0.00     0.141 A 
ATOM      4  C   UNL     1       2.350   0.651  -0.061  1.00  0.00     0.221 A 
ATOM      5  N   UNL     1       3.406   0.101   0.561  1.00  0.00    -0.247 N 
ATOM      6  N   UNL     1       3.027  -1.030   1.137  1.00  0.00    -0.180 NA
ATOM      7  C   UNL     1       1.713  -1.208   0.882  1.00  0.00     0.154 A 
ATOM      8  H   UNL     1       4.376   0.486   0.597  1.00  0.00     0.193 HD
BRANCH   4   9
ATOM      9  O   UNL     1       2.390   1.847  -0.769  1.00  0.00    -0.493 OA
ATOM     10  H   UNL     1       3.252   2.373  -0.847  1.00  0.00     0.295 HD
ENDBRANCH   4   9
ENDBRANCH   1   3
BRANCH   1  11
ATOM     11  O   UNL     1      -1.106  -0.900  -0.084  1.00  0.00    -0.462 OA
BRANCH  11  12
ATOM     12  C   UNL     1      -2.470  -0.765  -0.480  1.00  0.00     0.230 C 
ATOM     13  C   UNL     1      -3.188   0.249   0.403  1.00  0.00     0.049 C 
ENDBRANCH  11  12
ENDBRANCH   1  11
TORSDOF 4
