REMARK SMILES COc1cc2c(cc1OC)[C@@H](C1(O)CCCCC1)[NH2+]CC2
REMARK SMILES IDX 11 1 19 2 20 3 6 4 5 5 7 6 4 7 21 8 8 9 3 10 12 13 14 14
REMARK SMILES IDX 18 15 15 16 17 17 16 18 13 19 9 21 10 22 2 23 1 24
REMARK H PARENT 19 11 19 12 13 20
ROOT
ATOM      1  C   UNL     1       0.240   0.199  -1.709  1.00  0.00     0.246 C 
ATOM      2  N   UNL     1       0.942  -1.045  -2.120  1.00  0.00    -0.337 N 
ATOM      3  C   UNL     1       0.013  -2.161  -2.322  1.00  0.00     0.265 C 
ATOM      4  C   UNL     1      -0.747  -0.090  -0.544  1.00  0.00     0.020 A 
ATOM      5  C   UNL     1      -1.144  -1.421  -0.249  1.00  0.00    -0.029 A 
ATOM      6  C   UNL     1      -1.366   0.952   0.181  1.00  0.00     0.060 A 
ATOM      7  C   UNL     1      -2.050  -1.679   0.790  1.00  0.00     0.055 A 
ATOM      8  C   UNL     1      -0.570  -2.596  -0.988  1.00  0.00     0.097 C 
ATOM      9  C   UNL     1      -2.282   0.689   1.218  1.00  0.00     0.161 A 
ATOM     10  C   UNL     1      -2.616  -0.631   1.530  1.00  0.00     0.161 A 
ATOM     11  H   UNL     1       1.419  -0.904  -3.039  1.00  0.00     0.346 HD
ATOM     12  H   UNL     1       1.657  -1.311  -1.401  1.00  0.00     0.346 HD
ENDROOT
BRANCH   1  13
ATOM     13  C   UNL     1       1.270   1.377  -1.402  1.00  0.00     0.121 C 
ATOM     14  C   UNL     1       2.599   1.232  -2.212  1.00  0.00     0.042 C 
ATOM     15  C   UNL     1       0.618   2.788  -1.742  1.00  0.00     0.042 C 
ATOM     16  C   UNL     1       3.446   2.507  -2.132  1.00  0.00     0.003 C 
ATOM     17  C   UNL     1       1.229   3.493  -2.961  1.00  0.00     0.003 C 
ATOM     18  C   UNL     1       2.736   3.712  -2.779  1.00  0.00     0.000 C 
BRANCH  13  19
ATOM     19  O   UNL     1       1.650   1.280  -0.040  1.00  0.00    -0.383 OA
ATOM     20  H   UNL     1       1.188   1.960   0.507  1.00  0.00     0.211 HD
ENDBRANCH  13  19
ENDBRANCH   1  13
BRANCH   9  21
ATOM     21  O   UNL     1      -2.878   1.719   1.965  1.00  0.00    -0.493 OA
ATOM     22  C   UNL     1      -2.658   3.109   1.754  1.00  0.00     0.278 C 
ENDBRANCH   9  21
BRANCH  10  23
ATOM     23  O   UNL     1      -3.514  -0.860   2.585  1.00  0.00    -0.493 OA
ATOM     24  C   UNL     1      -3.928  -2.147   3.027  1.00  0.00     0.278 C 
ENDBRANCH  10  23
TORSDOF 4
