REMARK SMILES O=C(c1ccccc1)c1ccccc1C(=O)c1ccccc1
REMARK SMILES IDX 9 1 10 2 11 3 12 4 13 5 14 6 2 7 1 8 3 9 4 10 8 11 5 12 7 13
REMARK SMILES IDX 6 14 15 15 16 16 17 17 18 18 22 19 19 20 21 21 20 22
REMARK H PARENT
ROOT
ATOM      1  C   UNL     1       0.660  -0.585  -0.660  1.00  0.00     0.034 A 
ATOM      2  C   UNL     1       1.310  -1.299  -1.682  1.00  0.00     0.013 A 
ATOM      3  C   UNL     1       0.728  -1.425  -2.944  1.00  0.00     0.001 A 
ATOM      4  C   UNL     1      -0.513  -0.845  -3.201  1.00  0.00     0.001 A 
ATOM      5  C   UNL     1      -1.175  -0.134  -2.199  1.00  0.00     0.013 A 
ATOM      6  C   UNL     1      -0.605   0.002  -0.921  1.00  0.00     0.034 A 
ENDROOT
BRANCH   1   7
ATOM      7  C   UNL     1       1.283  -0.534   0.685  1.00  0.00     0.193 C 
ATOM      8  O   UNL     1       0.578  -0.820   1.691  1.00  0.00    -0.289 OA
BRANCH   7   9
ATOM      9  C   UNL     1       2.712  -0.178   0.877  1.00  0.00     0.023 A 
ATOM     10  C   UNL     1       3.389  -0.581   2.044  1.00  0.00     0.012 A 
ATOM     11  C   UNL     1       3.404   0.588  -0.081  1.00  0.00     0.012 A 
ATOM     12  C   UNL     1       4.731  -0.241   2.237  1.00  0.00     0.001 A 
ATOM     13  C   UNL     1       4.746   0.925   0.118  1.00  0.00     0.001 A 
ATOM     14  C   UNL     1       5.410   0.509   1.274  1.00  0.00     0.000 A 
ENDBRANCH   7   9
ENDBRANCH   1   7
BRANCH   6  15
ATOM     15  C   UNL     1      -1.310   0.822   0.094  1.00  0.00     0.193 C 
ATOM     16  O   UNL     1      -0.661   1.709   0.714  1.00  0.00    -0.289 OA
BRANCH  15  17
ATOM     17  C   UNL     1      -2.756   0.644   0.383  1.00  0.00     0.023 A 
ATOM     18  C   UNL     1      -3.494   1.691   0.965  1.00  0.00     0.012 A 
ATOM     19  C   UNL     1      -3.405  -0.576   0.111  1.00  0.00     0.012 A 
ATOM     20  C   UNL     1      -4.853   1.528   1.250  1.00  0.00     0.001 A 
ATOM     21  C   UNL     1      -4.764  -0.734   0.399  1.00  0.00     0.001 A 
ATOM     22  C   UNL     1      -5.488   0.317   0.965  1.00  0.00     0.000 A 
ENDBRANCH  15  17
ENDBRANCH   6  15
TORSDOF 4
