REMARK SMILES O=C(Nc1ccc2ncccc2c1)Nc1ccc2ncccc2c1
REMARK SMILES IDX 1 1 2 2 3 3 14 4 4 7 5 8 13 9 6 10 12 11 7 12 11 13 8 14
REMARK SMILES IDX 10 15 9 16 15 17 16 18 24 19 17 20 23 21 18 22 22 23 19 24
REMARK SMILES IDX 21 25 20 26
REMARK H PARENT 3 5 14 6
ROOT
ATOM      1  O   UNL     1       0.231  -0.323  -0.668  1.00  0.00    -0.248 OA
ATOM      2  C   UNL     1       0.086  -0.538   0.566  1.00  0.00     0.323 C 
ATOM      3  N   UNL     1       1.213  -0.909   1.375  1.00  0.00    -0.308 N 
ATOM      4  N   UNL     1      -1.208  -0.415   1.176  1.00  0.00    -0.308 N 
ATOM      5  H   UNL     1       1.017  -1.334   2.309  1.00  0.00     0.171 HD
ATOM      6  H   UNL     1      -1.245  -0.337   2.217  1.00  0.00     0.171 HD
ENDROOT
BRANCH   3   7
ATOM      7  C   UNL     1       2.579  -0.853   0.930  1.00  0.00     0.043 A 
ATOM      8  C   UNL     1       3.493  -1.812   1.396  1.00  0.00     0.028 A 
ATOM      9  C   UNL     1       3.033   0.176   0.085  1.00  0.00     0.036 A 
ATOM     10  C   UNL     1       4.832  -1.773   0.999  1.00  0.00     0.031 A 
ATOM     11  C   UNL     1       4.377   0.220  -0.317  1.00  0.00     0.002 A 
ATOM     12  C   UNL     1       5.279  -0.764   0.141  1.00  0.00     0.070 A 
ATOM     13  C   UNL     1       4.850   1.230  -1.165  1.00  0.00     0.012 A 
ATOM     14  N   UNL     1       6.583  -0.724  -0.245  1.00  0.00    -0.256 NA
ATOM     15  C   UNL     1       6.194   1.244  -1.545  1.00  0.00     0.021 A 
ATOM     16  C   UNL     1       7.053   0.249  -1.071  1.00  0.00     0.112 A 
ENDBRANCH   3   7
BRANCH   4  17
ATOM     17  C   UNL     1      -2.436  -0.263   0.443  1.00  0.00     0.043 A 
ATOM     18  C   UNL     1      -2.645  -0.927  -0.781  1.00  0.00     0.028 A 
ATOM     19  C   UNL     1      -3.469   0.516   0.987  1.00  0.00     0.036 A 
ATOM     20  C   UNL     1      -3.855  -0.785  -1.467  1.00  0.00     0.031 A 
ATOM     21  C   UNL     1      -4.684   0.663   0.302  1.00  0.00     0.002 A 
ATOM     22  C   UNL     1      -4.874   0.009  -0.935  1.00  0.00     0.070 A 
ATOM     23  C   UNL     1      -5.722   1.448   0.821  1.00  0.00     0.012 A 
ATOM     24  N   UNL     1      -6.052   0.148  -1.602  1.00  0.00    -0.256 NA
ATOM     25  C   UNL     1      -6.919   1.571   0.112  1.00  0.00     0.021 A 
ATOM     26  C   UNL     1      -7.067   0.908  -1.109  1.00  0.00     0.112 A 
ENDBRANCH   4  17
TORSDOF 2
