REMARK SMILES NC(=[NH2+])N/N=C/c1c(Cl)cccc1Cl
REMARK SMILES IDX 5 1 4 2 2 3 1 4 3 8 6 11 7 12 8 13 13 14 10 15 12 16 11 17
REMARK SMILES IDX 9 18 14 19
REMARK H PARENT 1 5 1 6 4 7 3 9 3 10
ROOT
ATOM      1  N   UNL     1       0.917  -0.078  -0.017  1.00  0.00    -0.121 NA
ENDROOT
BRANCH   1   2
ATOM      2  N   UNL     1       2.283  -0.393   0.072  1.00  0.00    -0.157 N 
ATOM      3  C   UNL     1       3.293   0.575  -0.250  1.00  0.00     0.362 C 
ATOM      4  N   UNL     1       4.672   0.206  -0.151  1.00  0.00    -0.289 N 
ATOM      5  H   UNL     1       4.941  -0.756   0.151  1.00  0.00     0.256 HD
ATOM      6  H   UNL     1       5.428   0.889  -0.380  1.00  0.00     0.256 HD
ATOM      7  H   UNL     1       2.582  -1.348   0.375  1.00  0.00     0.295 HD
BRANCH   3   8
ATOM      8  N   UNL     1       2.971   1.776  -0.628  1.00  0.00    -0.289 N 
ATOM      9  H   UNL     1       3.710   2.477  -0.862  1.00  0.00     0.256 HD
ATOM     10  H   UNL     1       1.976   2.079  -0.710  1.00  0.00     0.256 HD
ENDBRANCH   3   8
ENDBRANCH   1   2
BRANCH   1  11
ATOM     11  C   UNL     1      -0.005  -0.943   0.268  1.00  0.00     0.161 C 
BRANCH  11  12
ATOM     12  C   UNL     1      -1.444  -0.587   0.204  1.00  0.00     0.033 A 
ATOM     13  C   UNL     1      -2.356  -1.228   1.077  1.00  0.00     0.051 A 
ATOM     14  C   UNL     1      -1.942   0.371  -0.718  1.00  0.00     0.051 A 
ATOM     15  C   UNL     1      -3.716  -0.902   1.039  1.00  0.00     0.021 A 
ATOM     16  C   UNL     1      -3.307   0.681  -0.737  1.00  0.00     0.021 A 
ATOM     17  C   UNL     1      -4.188   0.050   0.139  1.00  0.00     0.003 A 
ATOM     18  Cl  UNL     1      -1.833  -2.420   2.265  1.00  0.00    -0.084 Cl
ATOM     19  Cl  UNL     1      -0.924   1.163  -1.919  1.00  0.00    -0.084 Cl
ENDBRANCH  11  12
ENDBRANCH   1  11
TORSDOF 4
