REMARK SMILES C=C(O)c1c(OC(C)=O)c(C)c(OC(C)=O)c2c1O[C@@H]1C=C(O)C(C(C)=O)=C(O)[C@@]21C
REMARK SMILES IDX 22 1 21 2 20 3 19 4 18 5 4 6 5 7 10 8 11 9 12 10 17 11 30 12
REMARK SMILES IDX 31 13 28 14 24 15 23 16 25 18 26 19 27 20 29 21 2 23 1 24
REMARK SMILES IDX 3 25 13 27 14 28 15 29 16 30 6 31 7 32 8 33 9 34
REMARK H PARENT 23 17 29 22 3 26
ROOT
ATOM      1  C   UNL     1      -3.878  -2.017  -0.783  1.00  0.00     0.129 C 
ATOM      2  C   UNL     1      -2.700  -2.558  -1.174  1.00  0.00     0.065 C 
ATOM      3  C   UNL     1      -1.500  -2.107  -0.409  1.00  0.00     0.218 C 
ATOM      4  O   UNL     1      -0.197  -2.423  -0.860  1.00  0.00    -0.483 OA
ATOM      5  C   UNL     1       0.634  -1.451  -0.309  1.00  0.00     0.143 A 
ATOM      6  C   UNL     1       2.029  -1.482  -0.284  1.00  0.00     0.101 A 
ATOM      7  C   UNL     1       2.712  -0.364   0.252  1.00  0.00     0.152 A 
ATOM      8  C   UNL     1       1.980   0.767   0.718  1.00  0.00     0.036 A 
ATOM      9  C   UNL     1       2.693   1.913   1.390  1.00  0.00     0.052 C 
ATOM     10  C   UNL     1       0.568   0.797   0.577  1.00  0.00     0.145 A 
ATOM     11  C   UNL     1      -0.090  -0.376   0.184  1.00  0.00     0.056 A 
ATOM     12  C   UNL     1      -1.519  -0.573  -0.257  1.00  0.00     0.098 C 
ATOM     13  C   UNL     1      -1.687   0.180  -1.607  1.00  0.00     0.030 C 
ATOM     14  C   UNL     1      -2.734  -0.307   0.626  1.00  0.00     0.121 C 
ATOM     15  C   UNL     1      -3.902  -0.941   0.287  1.00  0.00     0.097 C 
ENDROOT
BRANCH   1  16
ATOM     16  O   UNL     1      -5.070  -2.433  -1.376  1.00  0.00    -0.507 OA
ATOM     17  H   UNL     1      -5.087  -3.145  -2.097  1.00  0.00     0.293 HD
ENDBRANCH   1  16
BRANCH  15  18
ATOM     18  C   UNL     1      -5.179  -0.664   0.992  1.00  0.00     0.166 C 
ATOM     19  C   UNL     1      -5.517   0.694   1.529  1.00  0.00     0.094 C 
ATOM     20  O   UNL     1      -6.012  -1.597   1.149  1.00  0.00    -0.294 OA
ENDBRANCH  15  18
BRANCH  14  21
ATOM     21  O   UNL     1      -2.668   0.510   1.753  1.00  0.00    -0.510 OA
ATOM     22  H   UNL     1      -1.793   0.829   2.141  1.00  0.00     0.293 HD
ENDBRANCH  14  21
BRANCH   6  23
ATOM     23  C   UNL     1       2.744  -2.673  -0.798  1.00  0.00     0.123 C 
ATOM     24  C   UNL     1       3.737  -2.557  -1.679  1.00  0.00     0.059 C 
BRANCH  23  25
ATOM     25  O   UNL     1       2.364  -3.947  -0.380  1.00  0.00    -0.508 OA
ATOM     26  H   UNL     1       1.632  -4.081   0.308  1.00  0.00     0.293 HD
ENDBRANCH  23  25
ENDBRANCH   6  23
BRANCH  10  27
ATOM     27  O   UNL     1      -0.173   1.962   0.806  1.00  0.00    -0.426 OA
BRANCH  27  28
ATOM     28  C   UNL     1       0.064   3.172   0.147  1.00  0.00     0.308 C 
ATOM     29  C   UNL     1      -0.688   4.390   0.562  1.00  0.00     0.139 C 
ATOM     30  O   UNL     1       0.846   3.227  -0.841  1.00  0.00    -0.252 OA
ENDBRANCH  27  28
ENDBRANCH  10  27
BRANCH   7  31
ATOM     31  O   UNL     1       4.109  -0.408   0.351  1.00  0.00    -0.425 OA
BRANCH  31  32
ATOM     32  C   UNL     1       4.956   0.501  -0.293  1.00  0.00     0.308 C 
ATOM     33  C   UNL     1       6.420   0.461  -0.017  1.00  0.00     0.139 C 
ATOM     34  O   UNL     1       4.505   1.300  -1.158  1.00  0.00    -0.252 OA
ENDBRANCH  31  32
ENDBRANCH   7  31
TORSDOF 9
