REMARK SMILES O=C1CCCN1CC#CC[NH+]1CCCC1
REMARK SMILES IDX 9 1 10 2 11 3 12 4 15 5 13 6 14 7 8 9 7 10 6 11 5 12 2 13
REMARK SMILES IDX 4 14 3 15 1 16
REMARK H PARENT 11 8
ROOT
ATOM      1  C   UNL     1      -0.055   1.536   0.773  1.00  0.00    -0.041 C 
ENDROOT
BRANCH   1   2
ATOM      2  C   UNL     1      -1.461   1.544   1.205  1.00  0.00     0.354 C 
BRANCH   2   3
ATOM      3  N   UNL     1      -2.221   0.454   0.560  1.00  0.00    -0.325 N 
ATOM      4  C   UNL     1      -2.367   0.634  -0.894  1.00  0.00     0.263 C 
ATOM      5  C   UNL     1      -3.591   0.372   1.077  1.00  0.00     0.263 C 
ATOM      6  C   UNL     1      -3.660  -0.060  -1.304  1.00  0.00     0.067 C 
ATOM      7  C   UNL     1      -4.428  -0.286  -0.010  1.00  0.00     0.067 C 
ATOM      8  H   UNL     1      -1.743  -0.463   0.744  1.00  0.00     0.348 HD
ENDBRANCH   2   3
ENDBRANCH   1   2
BRANCH   1   9
ATOM      9  C   UNL     1       1.095   1.515   0.412  1.00  0.00    -0.076 C 
BRANCH   9  10
ATOM     10  C   UNL     1       2.490   1.473  -0.035  1.00  0.00     0.209 C 
BRANCH  10  11
ATOM     11  N   UNL     1       2.978   0.092  -0.045  1.00  0.00    -0.332 N 
ATOM     12  C   UNL     1       2.337  -0.993  -0.773  1.00  0.00     0.121 C 
ATOM     13  C   UNL     1       4.309  -0.283   0.259  1.00  0.00     0.223 C 
ATOM     14  C   UNL     1       3.281  -2.205  -0.648  1.00  0.00     0.031 C 
ATOM     15  C   UNL     1       4.625  -1.672  -0.133  1.00  0.00     0.102 C 
ATOM     16  O   UNL     1       5.143   0.500   0.787  1.00  0.00    -0.275 OA
ENDBRANCH  10  11
ENDBRANCH   9  10
ENDBRANCH   1   9
TORSDOF 5
