REMARK SMILES N=c1nc[nH]c2c1cnn2C1CCCCC1
REMARK SMILES IDX 5 1 4 2 3 3 2 4 7 5 8 6 9 7 10 8 6 9 11 11 12 12 16 13 13 14
REMARK SMILES IDX 15 15 14 16 1 17
REMARK H PARENT 5 10 1 18
ROOT
ATOM      1  N   UNL     1       1.615  -1.542  -0.973  1.00  0.00    -0.331 N 
ATOM      2  C   UNL     1       2.753  -2.258  -1.228  1.00  0.00     0.200 A 
ATOM      3  N   UNL     1       3.954  -1.870  -0.693  1.00  0.00    -0.219 NA
ATOM      4  C   UNL     1       4.057  -0.768   0.106  1.00  0.00     0.158 A 
ATOM      5  C   UNL     1       2.894  -0.043   0.356  1.00  0.00     0.081 A 
ATOM      6  C   UNL     1       2.593   1.070   1.117  1.00  0.00     0.149 A 
ATOM      7  N   UNL     1       1.261   1.306   1.013  1.00  0.00    -0.178 NA
ATOM      8  N   UNL     1       0.730   0.394   0.201  1.00  0.00    -0.246 N 
ATOM      9  C   UNL     1       1.715  -0.438  -0.189  1.00  0.00     0.140 A 
ATOM     10  H   UNL     1       0.703  -1.851  -1.374  1.00  0.00     0.169 HD
ENDROOT
BRANCH   8  11
ATOM     11  C   UNL     1      -0.704   0.272  -0.089  1.00  0.00     0.110 C 
ATOM     12  C   UNL     1      -1.369  -0.647   0.950  1.00  0.00     0.027 C 
ATOM     13  C   UNL     1      -1.385   1.656  -0.103  1.00  0.00     0.027 C 
ATOM     14  C   UNL     1      -2.875  -0.775   0.688  1.00  0.00     0.002 C 
ATOM     15  C   UNL     1      -2.889   1.522  -0.372  1.00  0.00     0.002 C 
ATOM     16  C   UNL     1      -3.551   0.601   0.662  1.00  0.00     0.000 C 
ENDBRANCH   8  11
BRANCH   4  17
ATOM     17  N   UNL     1       5.204  -0.431   0.605  1.00  0.00    -0.282 NA
ATOM     18  H   UNL     1       5.327   0.404   1.222  1.00  0.00     0.189 HD
ENDBRANCH   4  17
TORSDOF 2
