REMARK SMILES C=C(O)C1=C(O)[C@@]2(C)c3c(OC(C)=O)c(C)c(OC(C)=O)c(C(=C)O)c3O[C@H]2CC1=O
REMARK SMILES IDX 4 1 5 2 7 3 8 4 9 5 10 6 15 7 16 8 17 9 22 10 26 11 27 12
REMARK SMILES IDX 28 13 29 14 30 15 31 16 2 17 1 18 3 19 6 21 11 23 12 24
REMARK SMILES IDX 13 25 14 26 23 27 24 28 25 29 18 31 19 32 20 33 21 34
REMARK H PARENT 3 20 6 22 25 30
ROOT
ATOM      1  C   UNL     1       3.259   0.950   0.216  1.00  0.00     0.097 C 
ATOM      2  C   UNL     1       2.515  -0.029   0.783  1.00  0.00     0.121 C 
ATOM      3  C   UNL     1       1.690  -1.018  -0.049  1.00  0.00     0.095 C 
ATOM      4  C   UNL     1       1.847  -2.451   0.495  1.00  0.00     0.029 C 
ATOM      5  C   UNL     1       0.247  -0.572  -0.030  1.00  0.00     0.055 A 
ATOM      6  C   UNL     1      -0.636  -0.467   1.054  1.00  0.00     0.145 A 
ATOM      7  C   UNL     1      -1.915   0.106   0.839  1.00  0.00     0.036 A 
ATOM      8  C   UNL     1      -2.874   0.302   1.986  1.00  0.00     0.052 C 
ATOM      9  C   UNL     1      -2.311   0.476  -0.472  1.00  0.00     0.152 A 
ATOM     10  C   UNL     1      -1.399   0.361  -1.552  1.00  0.00     0.101 A 
ATOM     11  C   UNL     1      -0.129  -0.164  -1.282  1.00  0.00     0.142 A 
ATOM     12  O   UNL     1       0.893  -0.321  -2.193  1.00  0.00    -0.487 OA
ATOM     13  C   UNL     1       1.994  -0.998  -1.597  1.00  0.00     0.199 C 
ATOM     14  C   UNL     1       3.309  -0.330  -1.990  1.00  0.00     0.128 C 
ATOM     15  C   UNL     1       3.477   0.945  -1.242  1.00  0.00     0.173 C 
ATOM     16  O   UNL     1       3.849   1.988  -1.846  1.00  0.00    -0.294 OA
ENDROOT
BRANCH   1  17
ATOM     17  C   UNL     1       3.849   2.040   1.030  1.00  0.00     0.122 C 
ATOM     18  C   UNL     1       5.131   2.386   0.888  1.00  0.00     0.059 C 
BRANCH  17  19
ATOM     19  O   UNL     1       3.042   2.715   1.948  1.00  0.00    -0.508 OA
ATOM     20  H   UNL     1       3.400   3.466   2.527  1.00  0.00     0.293 HD
ENDBRANCH  17  19
ENDBRANCH   1  17
BRANCH   2  21
ATOM     21  O   UNL     1       2.442  -0.152   2.176  1.00  0.00    -0.510 OA
ATOM     22  H   UNL     1       3.028   0.364   2.819  1.00  0.00     0.293 HD
ENDBRANCH   2  21
BRANCH   6  23
ATOM     23  O   UNL     1      -0.230  -0.901   2.321  1.00  0.00    -0.426 OA
BRANCH  23  24
ATOM     24  C   UNL     1      -0.861  -1.940   3.014  1.00  0.00     0.308 C 
ATOM     25  C   UNL     1      -0.422  -2.266   4.400  1.00  0.00     0.139 C 
ATOM     26  O   UNL     1      -1.744  -2.646   2.455  1.00  0.00    -0.252 OA
ENDBRANCH  23  24
ENDBRANCH   6  23
BRANCH  10  27
ATOM     27  C   UNL     1      -1.739   0.868  -2.903  1.00  0.00     0.123 C 
ATOM     28  C   UNL     1      -1.446   0.167  -4.002  1.00  0.00     0.059 C 
BRANCH  27  29
ATOM     29  O   UNL     1      -2.391   2.097  -3.016  1.00  0.00    -0.508 OA
ATOM     30  H   UNL     1      -2.655   2.484  -3.914  1.00  0.00     0.293 HD
ENDBRANCH  27  29
ENDBRANCH  10  27
BRANCH   9  31
ATOM     31  O   UNL     1      -3.611   0.964  -0.674  1.00  0.00    -0.425 OA
BRANCH  31  32
ATOM     32  C   UNL     1      -4.524   0.384  -1.561  1.00  0.00     0.308 C 
ATOM     33  C   UNL     1      -5.831   1.055  -1.809  1.00  0.00     0.139 C 
ATOM     34  O   UNL     1      -4.281  -0.730  -2.101  1.00  0.00    -0.252 OA
ENDBRANCH  31  32
ENDBRANCH   9  31
TORSDOF 9
