REMARK SMILES Cc1ccc(N=c2[nH]nc(-c3ccc4c(c3)OCO4)o2)c(C)c1
REMARK SMILES IDX 6 1 7 2 8 3 9 4 10 5 20 6 11 8 12 9 16 10 13 11 15 12 14 13
REMARK SMILES IDX 17 14 19 15 18 16 5 17 4 18 21 19 3 20 23 21 2 22 22 23 1 24
REMARK H PARENT 8 7
ROOT
ATOM      1  N   UNL     1      -1.284  -0.550  -0.725  1.00  0.00    -0.196 NA
ENDROOT
BRANCH   1   2
ATOM      2  C   UNL     1      -0.262   0.000  -0.138  1.00  0.00     0.318 A 
ATOM      3  N   UNL     1      -0.321   0.859   0.897  1.00  0.00    -0.226 N 
ATOM      4  N   UNL     1       0.925   1.163   1.218  1.00  0.00    -0.132 NA
ATOM      5  C   UNL     1       1.704   0.471   0.357  1.00  0.00     0.247 A 
ATOM      6  O   UNL     1       0.979  -0.249  -0.473  1.00  0.00    -0.403 OA
ATOM      7  H   UNL     1      -1.161   1.209   1.408  1.00  0.00     0.195 HD
BRANCH   5   8
ATOM      8  C   UNL     1       3.179   0.512   0.352  1.00  0.00     0.043 A 
ATOM      9  C   UNL     1       3.882   1.317   1.287  1.00  0.00     0.018 A 
ATOM     10  C   UNL     1       3.902  -0.254  -0.590  1.00  0.00     0.064 A 
ATOM     11  C   UNL     1       5.288   1.356   1.282  1.00  0.00     0.051 A 
ATOM     12  C   UNL     1       5.292  -0.186  -0.560  1.00  0.00     0.166 A 
ATOM     13  C   UNL     1       5.956   0.585   0.337  1.00  0.00     0.165 A 
ATOM     14  O   UNL     1       6.203  -0.837  -1.371  1.00  0.00    -0.454 OA
ATOM     15  O   UNL     1       7.317   0.458   0.135  1.00  0.00    -0.454 OA
ATOM     16  C   UNL     1       7.521  -0.450  -0.957  1.00  0.00     0.468 C 
ENDBRANCH   5   8
ENDBRANCH   1   2
BRANCH   1  17
ATOM     17  C   UNL     1      -2.667  -0.266  -0.460  1.00  0.00     0.072 A 
ATOM     18  C   UNL     1      -3.128   1.061  -0.406  1.00  0.00     0.029 A 
ATOM     19  C   UNL     1      -3.592  -1.325  -0.359  1.00  0.00    -0.025 A 
ATOM     20  C   UNL     1      -4.481   1.333  -0.196  1.00  0.00     0.005 A 
ATOM     21  C   UNL     1      -4.952  -1.042  -0.147  1.00  0.00     0.009 A 
ATOM     22  C   UNL     1      -5.398   0.284  -0.044  1.00  0.00    -0.051 A 
ATOM     23  C   UNL     1      -3.130  -2.752  -0.468  1.00  0.00     0.047 C 
ATOM     24  C   UNL     1      -6.857   0.578   0.142  1.00  0.00     0.044 C 
ENDBRANCH   1  17
TORSDOF 3
