REMARK SMILES O=C(Nc1ccccc1F)Nc1cccc2ccc(O)cc12
REMARK SMILES IDX 12 1 13 2 14 3 15 4 16 5 17 6 18 7 19 8 21 9 22 10 11 11
REMARK SMILES IDX 2 12 3 13 1 14 4 17 5 18 9 19 6 20 8 21 7 22 10 23 20 24
REMARK H PARENT 3 15 11 16 20 25
ROOT
ATOM      1  C   UNL     1      -1.366  -0.812  -0.550  1.00  0.00     0.050 A 
ATOM      2  C   UNL     1      -1.201  -1.463  -1.784  1.00  0.00     0.027 A 
ATOM      3  C   UNL     1      -2.261  -1.566  -2.684  1.00  0.00     0.003 A 
ATOM      4  C   UNL     1      -3.508  -1.030  -2.365  1.00  0.00     0.009 A 
ATOM      5  C   UNL     1      -3.704  -0.379  -1.140  1.00  0.00    -0.016 A 
ATOM      6  C   UNL     1      -4.960   0.162  -0.824  1.00  0.00     0.012 A 
ATOM      7  C   UNL     1      -5.157   0.824   0.388  1.00  0.00     0.047 A 
ATOM      8  C   UNL     1      -4.105   0.961   1.296  1.00  0.00     0.116 A 
ATOM      9  C   UNL     1      -2.845   0.424   0.995  1.00  0.00     0.057 A 
ATOM     10  C   UNL     1      -2.629  -0.262  -0.218  1.00  0.00     0.009 A 
ENDROOT
BRANCH   1  11
ATOM     11  N   UNL     1      -0.269  -0.770   0.380  1.00  0.00    -0.307 N 
ATOM     12  C   UNL     1       1.061  -0.385   0.005  1.00  0.00     0.323 C 
ATOM     13  N   UNL     1       2.131  -0.525   0.951  1.00  0.00    -0.305 N 
ATOM     14  O   UNL     1       1.290   0.064  -1.151  1.00  0.00    -0.248 OA
ATOM     15  H   UNL     1       1.973  -1.146   1.776  1.00  0.00     0.171 HD
ATOM     16  H   UNL     1      -0.448  -1.012   1.381  1.00  0.00     0.171 HD
BRANCH  13  17
ATOM     17  C   UNL     1       3.456  -0.015   0.731  1.00  0.00     0.078 A 
ATOM     18  C   UNL     1       4.562  -0.817   1.052  1.00  0.00     0.029 A 
ATOM     19  C   UNL     1       3.670   1.294   0.254  1.00  0.00     0.146 A 
ATOM     20  C   UNL     1       5.862  -0.339   0.861  1.00  0.00     0.002 A 
ATOM     21  C   UNL     1       4.973   1.767   0.066  1.00  0.00     0.041 A 
ATOM     22  C   UNL     1       6.067   0.950   0.363  1.00  0.00     0.003 A 
ATOM     23  F   UNL     1       2.626   2.128   0.020  1.00  0.00    -0.205 F 
ENDBRANCH  13  17
ENDBRANCH   1  11
BRANCH   8  24
ATOM     24  O   UNL     1      -4.320   1.635   2.496  1.00  0.00    -0.508 OA
ATOM     25  H   UNL     1      -3.579   1.754   3.178  1.00  0.00     0.293 HD
ENDBRANCH   8  24
TORSDOF 3
