REMARK SMILES [SH2]=c1nc[nH]c2sc(Nc3ccccc3)nc12
REMARK SMILES IDX 5 1 4 2 3 3 2 4 17 5 16 6 8 7 7 8 6 9 1 11 9 14 10 16 11 17
REMARK SMILES IDX 15 18 12 19 14 20 13 21
REMARK H PARENT 5 10 1 12 1 13 9 15
ROOT
ATOM      1  N   UNL     1      -3.939   1.494   0.661  1.00  0.00    -0.336 N 
ATOM      2  C   UNL     1      -4.741   0.792  -0.191  1.00  0.00     0.199 A 
ATOM      3  N   UNL     1      -4.202  -0.126  -1.050  1.00  0.00    -0.231 NA
ATOM      4  C   UNL     1      -2.860  -0.369  -1.086  1.00  0.00     0.112 A 
ATOM      5  C   UNL     1      -2.033   0.345  -0.218  1.00  0.00     0.131 A 
ATOM      6  N   UNL     1      -0.683   0.233  -0.124  1.00  0.00    -0.215 NA
ATOM      7  C   UNL     1      -0.201   1.069   0.831  1.00  0.00     0.189 A 
ATOM      8  S   UNL     1      -1.417   1.992   1.571  1.00  0.00    -0.078 S 
ATOM      9  C   UNL     1      -2.604   1.262   0.636  1.00  0.00     0.126 A 
ATOM     10  H   UNL     1      -4.347   2.196   1.317  1.00  0.00     0.168 HD
ENDROOT
BRANCH   4  11
ATOM     11  S   UNL     1      -2.262  -1.459  -2.115  1.00  0.00    -0.188 S 
ATOM     12  H   UNL     1      -3.381  -2.040  -2.708  1.00  0.00     0.095 HD
ATOM     13  H   UNL     1      -1.762  -2.456  -1.281  1.00  0.00     0.095 HD
ENDBRANCH   4  11
BRANCH   7  14
ATOM     14  N   UNL     1       1.193   1.212   1.131  1.00  0.00    -0.331 N 
ATOM     15  H   UNL     1       1.485   2.058   1.670  1.00  0.00     0.169 HD
BRANCH  14  16
ATOM     16  C   UNL     1       2.216   0.334   0.632  1.00  0.00     0.040 A 
ATOM     17  C   UNL     1       3.492   0.851   0.357  1.00  0.00     0.026 A 
ATOM     18  C   UNL     1       1.986  -1.045   0.468  1.00  0.00     0.026 A 
ATOM     19  C   UNL     1       4.510   0.014  -0.111  1.00  0.00     0.002 A 
ATOM     20  C   UNL     1       3.006  -1.879  -0.000  1.00  0.00     0.002 A 
ATOM     21  C   UNL     1       4.265  -1.349  -0.294  1.00  0.00     0.000 A 
ENDBRANCH  14  16
ENDBRANCH   7  14
TORSDOF 3
