REMARK SMILES CCN=c1nc(-c2cn(-c3ccccc3)c3ccccc23)nc(Cl)[nH]1
REMARK SMILES IDX 25 1 23 2 24 3 22 4 6 5 5 6 4 7 3 9 2 10 1 11 7 12 8 13
REMARK SMILES IDX 21 14 9 15 20 16 16 17 19 18 17 19 18 20 10 21 11 22 15 23
REMARK SMILES IDX 12 24 14 25 13 26
REMARK H PARENT 25 8
ROOT
ATOM      1  N   UNL     1       3.784  -1.829  -0.267  1.00  0.00    -0.299 N 
ATOM      2  C   UNL     1       2.706  -2.477  -0.781  1.00  0.00     0.204 A 
ATOM      3  Cl  UNL     1       2.905  -4.015  -1.598  1.00  0.00    -0.043 Cl
ATOM      4  N   UNL     1       1.468  -1.937  -0.664  1.00  0.00    -0.199 NA
ATOM      5  C   UNL     1       1.294  -0.749  -0.033  1.00  0.00     0.168 A 
ATOM      6  N   UNL     1       2.373  -0.103   0.478  1.00  0.00    -0.193 NA
ATOM      7  C   UNL     1       3.619  -0.629   0.367  1.00  0.00     0.226 A 
ATOM      8  H   UNL     1       4.721  -2.276  -0.367  1.00  0.00     0.172 HD
ENDROOT
BRANCH   7   9
ATOM      9  N   UNL     1       4.621   0.031   0.876  1.00  0.00    -0.251 NA
BRANCH   9  10
ATOM     10  C   UNL     1       6.034  -0.345   0.848  1.00  0.00     0.143 C 
ATOM     11  C   UNL     1       6.646  -0.052  -0.519  1.00  0.00     0.029 C 
ENDBRANCH   9  10
ENDBRANCH   7   9
BRANCH   5  12
ATOM     12  C   UNL     1      -0.060  -0.173   0.087  1.00  0.00     0.045 A 
ATOM     13  C   UNL     1      -1.227  -0.749  -0.407  1.00  0.00     0.104 A 
ATOM     14  C   UNL     1      -0.457   1.010   0.697  1.00  0.00     0.011 A 
ATOM     15  N   UNL     1      -2.297   0.033  -0.134  1.00  0.00    -0.316 N 
ATOM     16  C   UNL     1       0.267   1.990   1.385  1.00  0.00     0.011 A 
ATOM     17  C   UNL     1      -1.823   1.100   0.546  1.00  0.00     0.054 A 
ATOM     18  C   UNL     1      -0.441   3.074   1.933  1.00  0.00     0.001 A 
ATOM     19  C   UNL     1      -2.549   2.158   1.105  1.00  0.00     0.027 A 
ATOM     20  C   UNL     1      -1.842   3.155   1.798  1.00  0.00     0.002 A 
BRANCH  15  21
ATOM     21  C   UNL     1      -3.654  -0.247  -0.517  1.00  0.00     0.046 A 
ATOM     22  C   UNL     1      -4.194  -1.529  -0.313  1.00  0.00     0.026 A 
ATOM     23  C   UNL     1      -4.440   0.737  -1.139  1.00  0.00     0.026 A 
ATOM     24  C   UNL     1      -5.507  -1.811  -0.701  1.00  0.00     0.002 A 
ATOM     25  C   UNL     1      -5.753   0.451  -1.527  1.00  0.00     0.002 A 
ATOM     26  C   UNL     1      -6.287  -0.822  -1.305  1.00  0.00     0.000 A 
ENDBRANCH  15  21
ENDBRANCH   5  12
TORSDOF 4
