REMARK SMILES CC(C)c1ccc2c(c1)CC[C@H]1[C@@](C)(C[NH3+])CCC[C@@]21C
REMARK SMILES IDX 13 1 12 2 14 3 17 4 11 5 20 6 18 7 10 8 19 9 21 10 7 11 8 12
REMARK SMILES IDX 6 13 9 14 5 15 4 16 15 17 16 18 2 22 1 23 3 24
REMARK H PARENT 16 19 16 20 16 21
ROOT
ATOM      1  C   UNL     1      -1.004  -2.451  -0.021  1.00  0.00     0.020 C 
ATOM      2  C   UNL     1      -0.992  -0.890  -0.439  1.00  0.00     0.011 C 
ATOM      3  C   UNL     1      -2.467  -2.977  -0.081  1.00  0.00     0.018 C 
ATOM      4  C   UNL     1      -0.473  -2.621   1.437  1.00  0.00     0.013 C 
ATOM      5  C   UNL     1      -0.070  -0.460  -1.610  1.00  0.00     0.010 C 
ATOM      6  C   UNL     1      -0.804   0.116   0.765  1.00  0.00    -0.004 C 
ATOM      7  C   UNL     1      -1.216  -1.771   2.478  1.00  0.00     0.002 C 
ATOM      8  C   UNL     1       1.415  -0.382  -1.247  1.00  0.00     0.036 C 
ATOM      9  C   UNL     1      -1.664  -0.402   1.950  1.00  0.00     0.012 C 
ATOM     10  C   UNL     1      -1.337   1.527   0.401  1.00  0.00     0.017 C 
ATOM     11  C   UNL     1       0.682   0.271   1.132  1.00  0.00    -0.039 A 
ATOM     12  C   UNL     1       1.701   0.046   0.170  1.00  0.00    -0.044 A 
ATOM     13  C   UNL     1       1.065   0.753   2.403  1.00  0.00     0.005 A 
ATOM     14  C   UNL     1       3.049   0.214   0.526  1.00  0.00     0.008 A 
ATOM     15  C   UNL     1       2.408   0.912   2.742  1.00  0.00     0.004 A 
ATOM     16  C   UNL     1       3.415   0.626   1.815  1.00  0.00    -0.045 A 
ENDROOT
BRANCH   1  17
ATOM     17  C   UNL     1      -0.131  -3.360  -0.967  1.00  0.00     0.265 C 
BRANCH  17  18
ATOM     18  N   UNL     1      -0.349  -4.806  -0.808  1.00  0.00    -0.357 N 
ATOM     19  H   UNL     1       0.412  -5.316  -1.314  1.00  0.00     0.344 HD
ATOM     20  H   UNL     1      -1.258  -5.088  -1.241  1.00  0.00     0.344 HD
ATOM     21  H   UNL     1      -0.321  -5.106   0.191  1.00  0.00     0.344 HD
ENDBRANCH  17  18
ENDBRANCH   1  17
BRANCH  16  22
ATOM     22  C   UNL     1       4.872   0.817   2.196  1.00  0.00     0.013 C 
ATOM     23  C   UNL     1       5.477   2.010   1.450  1.00  0.00     0.012 C 
ATOM     24  C   UNL     1       5.690  -0.459   1.952  1.00  0.00     0.012 C 
ENDBRANCH  16  22
TORSDOF 3
