REMARK SMILES Cn1c2nc(CNc3ccc(C(=O)[O-])cc3)nc-2c(O)n(C)c1=O
REMARK SMILES IDX 6 1 5 2 19 3 18 4 21 5 17 6 3 7 23 8 4 9 2 10 22 11 24 12
REMARK SMILES IDX 1 13 20 14 7 16 8 18 9 19 16 20 10 21 15 22 11 23 12 24
REMARK SMILES IDX 13 25 14 26
REMARK H PARENT 20 15 7 17
ROOT
ATOM      1  C   UNL     1       1.009   0.272   0.993  1.00  0.00     0.190 C 
ENDROOT
BRANCH   1   2
ATOM      2  C   UNL     1      -0.464   0.350   0.738  1.00  0.00     0.150 A 
ATOM      3  C   UNL     1      -3.450   1.829  -0.259  1.00  0.00     0.225 A 
ATOM      4  C   UNL     1      -2.343   1.109   0.145  1.00  0.00     0.168 A 
ATOM      5  N   UNL     1      -4.664   1.179  -0.300  1.00  0.00    -0.266 N 
ATOM      6  N   UNL     1      -1.066   1.486   0.283  1.00  0.00    -0.222 NA
ATOM      7  C   UNL     1      -2.478  -0.239   0.510  1.00  0.00     0.170 A 
ATOM      8  C   UNL     1      -4.779  -0.149   0.096  1.00  0.00     0.332 A 
ATOM      9  N   UNL     1      -1.286  -0.727   0.884  1.00  0.00    -0.211 NA
ATOM     10  N   UNL     1      -3.673  -0.879   0.480  1.00  0.00    -0.279 N 
ATOM     11  C   UNL     1      -5.865   1.932  -0.693  1.00  0.00     0.158 C 
ATOM     12  O   UNL     1      -5.917  -0.698   0.113  1.00  0.00    -0.247 OA
ATOM     13  C   UNL     1      -3.793  -2.275   0.920  1.00  0.00     0.157 C 
BRANCH   3  14
ATOM     14  O   UNL     1      -3.337   3.177  -0.605  1.00  0.00    -0.493 OA
ATOM     15  H   UNL     1      -2.448   3.662  -0.574  1.00  0.00     0.295 HD
ENDBRANCH   3  14
ENDBRANCH   1   2
BRANCH   1  16
ATOM     16  N   UNL     1       1.721  -0.135  -0.220  1.00  0.00    -0.378 N 
ATOM     17  H   UNL     1       1.170  -0.320  -1.090  1.00  0.00     0.161 HD
BRANCH  16  18
ATOM     18  C   UNL     1       3.151  -0.296  -0.278  1.00  0.00     0.034 A 
ATOM     19  C   UNL     1       3.749  -0.691  -1.484  1.00  0.00     0.026 A 
ATOM     20  C   UNL     1       3.970  -0.069   0.844  1.00  0.00     0.026 A 
ATOM     21  C   UNL     1       5.134  -0.856  -1.573  1.00  0.00     0.012 A 
ATOM     22  C   UNL     1       5.356  -0.233   0.756  1.00  0.00     0.012 A 
ATOM     23  C   UNL     1       5.952  -0.628  -0.453  1.00  0.00    -0.003 A 
BRANCH  23  24
ATOM     24  C   UNL     1       7.419  -0.802  -0.541  1.00  0.00     0.071 C 
ATOM     25  O   UNL     1       7.958  -1.156  -1.623  1.00  0.00    -0.545 OA
ATOM     26  O   UNL     1       8.223  -0.576   0.570  1.00  0.00    -0.545 OA
ENDBRANCH  23  24
ENDBRANCH  16  18
ENDBRANCH   1  16
TORSDOF 5
