REMARK SMILES Cn1ncc2c(=Nc3ccc(O)cc3)nc(Cl)[nH]c21
REMARK SMILES IDX 8 1 9 2 10 3 11 4 13 5 14 6 7 7 6 8 18 9 16 10 19 11 15 12
REMARK SMILES IDX 2 13 5 14 3 15 4 16 17 18 1 19 12 20
REMARK H PARENT 18 17 12 21
ROOT
ATOM      1  C   UNL     1       1.998  -0.138   0.641  1.00  0.00     0.066 A 
ATOM      2  C   UNL     1       2.883   0.243   1.658  1.00  0.00     0.032 A 
ATOM      3  C   UNL     1       4.246   0.403   1.389  1.00  0.00     0.048 A 
ATOM      4  C   UNL     1       4.742   0.160   0.101  1.00  0.00     0.115 A 
ATOM      5  C   UNL     1       3.869  -0.251  -0.911  1.00  0.00     0.048 A 
ATOM      6  C   UNL     1       2.506  -0.410  -0.644  1.00  0.00     0.032 A 
ENDROOT
BRANCH   1   7
ATOM      7  N   UNL     1       0.611  -0.322   0.968  1.00  0.00    -0.228 NA
BRANCH   7   8
ATOM      8  C   UNL     1      -0.412  -0.064   0.205  1.00  0.00     0.168 A 
ATOM      9  N   UNL     1      -2.624   0.533  -1.375  1.00  0.00    -0.315 N 
ATOM     10  C   UNL     1      -1.358   0.815  -1.810  1.00  0.00     0.203 A 
ATOM     11  C   UNL     1      -2.765  -0.039  -0.153  1.00  0.00     0.141 A 
ATOM     12  N   UNL     1      -0.272   0.522  -1.024  1.00  0.00    -0.199 NA
ATOM     13  N   UNL     1      -3.903  -0.389   0.469  1.00  0.00    -0.252 N 
ATOM     14  C   UNL     1      -1.703  -0.337   0.637  1.00  0.00     0.082 A 
ATOM     15  N   UNL     1      -3.591  -0.909   1.653  1.00  0.00    -0.179 NA
ATOM     16  C   UNL     1      -2.239  -0.889   1.783  1.00  0.00     0.149 A 
ATOM     17  H   UNL     1      -3.455   0.755  -1.967  1.00  0.00     0.171 HD
ATOM     18  Cl  UNL     1      -1.112   1.560  -3.377  1.00  0.00    -0.043 Cl
ATOM     19  C   UNL     1      -5.263  -0.236  -0.030  1.00  0.00     0.176 C 
ENDBRANCH   7   8
ENDBRANCH   1   7
BRANCH   4  20
ATOM     20  O   UNL     1       6.097   0.316  -0.180  1.00  0.00    -0.508 OA
ATOM     21  H   UNL     1       6.755   0.610   0.533  1.00  0.00     0.293 HD
ENDBRANCH   4  20
TORSDOF 3
