REMARK SMILES CC(O)=CC(=O)Nc1ccc2ccccc2c1
REMARK SMILES IDX 2 1 1 2 3 3 4 5 5 6 7 7 6 8 8 10 9 11 17 12 10 13 16 14
REMARK SMILES IDX 11 15 15 16 12 17 14 18 13 19
REMARK H PARENT 3 4 7 9
ROOT
ATOM      1  C   UNL     1      -4.149   0.208   0.077  1.00  0.00     0.095 C 
ATOM      2  C   UNL     1      -5.638   0.375   0.138  1.00  0.00     0.087 C 
ENDROOT
BRANCH   1   3
ATOM      3  O   UNL     1      -3.331   1.079   0.796  1.00  0.00    -0.512 OA
ATOM      4  H   UNL     1      -3.718   1.835   1.349  1.00  0.00     0.293 HD
ENDBRANCH   1   3
BRANCH   1   5
ATOM      5  C   UNL     1      -3.622  -0.808  -0.623  1.00  0.00     0.112 C 
BRANCH   5   6
ATOM      6  C   UNL     1      -2.174  -1.066  -0.746  1.00  0.00     0.251 C 
ATOM      7  N   UNL     1      -1.211  -0.003  -0.653  1.00  0.00    -0.322 N 
ATOM      8  O   UNL     1      -1.793  -2.237  -1.015  1.00  0.00    -0.269 OA
ATOM      9  H   UNL     1      -1.514   0.956  -0.938  1.00  0.00     0.170 HD
BRANCH   7  10
ATOM     10  C   UNL     1       0.180  -0.209  -0.349  1.00  0.00     0.042 A 
ATOM     11  C   UNL     1       0.598  -1.269   0.476  1.00  0.00     0.027 A 
ATOM     12  C   UNL     1       1.133   0.695  -0.841  1.00  0.00     0.034 A 
ATOM     13  C   UNL     1       1.951  -1.441   0.779  1.00  0.00     0.011 A 
ATOM     14  C   UNL     1       2.494   0.530  -0.543  1.00  0.00    -0.016 A 
ATOM     15  C   UNL     1       2.908  -0.551   0.273  1.00  0.00    -0.018 A 
ATOM     16  C   UNL     1       3.451   1.426  -1.045  1.00  0.00     0.009 A 
ATOM     17  C   UNL     1       4.269  -0.715   0.571  1.00  0.00     0.009 A 
ATOM     18  C   UNL     1       4.804   1.251  -0.741  1.00  0.00     0.001 A 
ATOM     19  C   UNL     1       5.212   0.184   0.064  1.00  0.00     0.001 A 
ENDBRANCH   7  10
ENDBRANCH   5   6
ENDBRANCH   1   5
TORSDOF 4
