REMARK SMILES C=C(O)C1=C(O)C[C@@H]2Oc3c(C(C)=O)c(OC(C)=O)c(C)c(OC(C)=O)c3[C@@]2(C)C1=O
REMARK SMILES IDX 5 1 4 2 30 3 31 4 28 5 29 6 27 7 22 8 20 9 21 10 15 11 11 12
REMARK SMILES IDX 10 13 9 14 8 15 7 16 6 17 2 19 1 20 3 21 23 23 24 24 25 25
REMARK SMILES IDX 26 26 12 27 13 28 14 29 16 30 17 31 18 32 19 33
REMARK H PARENT 6 18 3 22
ROOT
ATOM      1  C   UNL     1       3.970  -1.474  -0.580  1.00  0.00     0.111 C 
ATOM      2  C   UNL     1       3.916  -0.238   0.017  1.00  0.00     0.097 C 
ATOM      3  C   UNL     1       2.593   0.416   0.301  1.00  0.00     0.184 C 
ATOM      4  O   UNL     1       2.516   1.474   0.980  1.00  0.00    -0.293 OA
ATOM      5  C   UNL     1       1.380  -0.188  -0.348  1.00  0.00     0.101 C 
ATOM      6  C   UNL     1       1.324   0.249  -1.834  1.00  0.00     0.029 C 
ATOM      7  C   UNL     1      -0.000  -0.034   0.228  1.00  0.00     0.056 A 
ATOM      8  C   UNL     1      -0.704   1.120   0.576  1.00  0.00     0.145 A 
ATOM      9  C   UNL     1      -2.075   0.996   0.917  1.00  0.00     0.036 A 
ATOM     10  C   UNL     1      -2.857   2.190   1.400  1.00  0.00     0.052 C 
ATOM     11  C   UNL     1      -2.738  -0.249   0.744  1.00  0.00     0.152 A 
ATOM     12  C   UNL     1      -2.015  -1.399   0.325  1.00  0.00     0.103 A 
ATOM     13  C   UNL     1      -0.646  -1.248   0.072  1.00  0.00     0.142 A 
ATOM     14  O   UNL     1       0.241  -2.238  -0.340  1.00  0.00    -0.487 OA
ATOM     15  C   UNL     1       1.540  -1.704  -0.147  1.00  0.00     0.199 C 
ATOM     16  C   UNL     1       2.709  -2.257  -0.953  1.00  0.00     0.122 C 
ENDROOT
BRANCH   1  17
ATOM     17  O   UNL     1       5.190  -2.096  -0.863  1.00  0.00    -0.511 OA
ATOM     18  H   UNL     1       6.088  -1.713  -0.598  1.00  0.00     0.293 HD
ENDBRANCH   1  17
BRANCH   2  19
ATOM     19  C   UNL     1       5.154   0.496   0.361  1.00  0.00     0.122 C 
ATOM     20  C   UNL     1       5.422   0.824   1.624  1.00  0.00     0.059 C 
BRANCH  19  21
ATOM     21  O   UNL     1       6.051   0.861  -0.640  1.00  0.00    -0.508 OA
ATOM     22  H   UNL     1       5.863   0.653  -1.614  1.00  0.00     0.293 HD
ENDBRANCH  19  21
ENDBRANCH   2  19
BRANCH   8  23
ATOM     23  O   UNL     1      -0.046   2.354   0.580  1.00  0.00    -0.426 OA
BRANCH  23  24
ATOM     24  C   UNL     1      -0.413   3.423  -0.244  1.00  0.00     0.308 C 
ATOM     25  C   UNL     1       0.285   4.731  -0.100  1.00  0.00     0.139 C 
ATOM     26  O   UNL     1      -1.275   3.271  -1.152  1.00  0.00    -0.252 OA
ENDBRANCH  23  24
ENDBRANCH   8  23
BRANCH  12  27
ATOM     27  C   UNL     1      -2.659  -2.731   0.227  1.00  0.00     0.167 C 
ATOM     28  C   UNL     1      -2.253  -3.725  -0.818  1.00  0.00     0.094 C 
ATOM     29  O   UNL     1      -3.545  -3.059   1.062  1.00  0.00    -0.294 OA
ENDBRANCH  12  27
BRANCH  11  30
ATOM     30  O   UNL     1      -4.117  -0.315   0.986  1.00  0.00    -0.425 OA
BRANCH  30  31
ATOM     31  C   UNL     1      -5.052  -0.656   0.003  1.00  0.00     0.308 C 
ATOM     32  C   UNL     1      -6.489  -0.792   0.373  1.00  0.00     0.139 C 
ATOM     33  O   UNL     1      -4.702  -0.788  -1.202  1.00  0.00    -0.252 OA
ENDBRANCH  30  31
ENDBRANCH  11  30
TORSDOF 8
