REMARK SMILES C=C(O)c1c(OC(C)=O)c(C)c(OC(C)=O)c2c1O[C@@H]1CC(=O)C(C(C)=O)=C(O)[C@@]21C
REMARK SMILES IDX 4 1 5 2 10 3 11 4 12 5 17 6 18 7 19 8 20 9 21 10 22 11 23 12
REMARK SMILES IDX 24 13 28 14 30 15 31 16 2 17 1 18 3 19 6 21 7 22 8 23 9 24
REMARK SMILES IDX 13 25 14 26 15 27 16 28 29 29 25 31 26 32 27 33
REMARK H PARENT 3 20 29 30
ROOT
ATOM      1  C   UNL     1      -1.732  -1.737   0.368  1.00  0.00     0.101 A 
ATOM      2  C   UNL     1      -2.655  -0.685   0.171  1.00  0.00     0.152 A 
ATOM      3  C   UNL     1      -2.204   0.667   0.144  1.00  0.00     0.036 A 
ATOM      4  C   UNL     1      -3.211   1.787   0.243  1.00  0.00     0.052 C 
ATOM      5  C   UNL     1      -0.808   0.946   0.150  1.00  0.00     0.145 A 
ATOM      6  C   UNL     1       0.091  -0.133   0.204  1.00  0.00     0.055 A 
ATOM      7  C   UNL     1      -0.375  -1.422   0.404  1.00  0.00     0.142 A 
ATOM      8  O   UNL     1       0.658  -2.307   0.684  1.00  0.00    -0.487 OA
ATOM      9  C   UNL     1       1.860  -1.640   0.350  1.00  0.00     0.199 C 
ATOM     10  C   UNL     1       3.152  -2.054   1.046  1.00  0.00     0.128 C 
ATOM     11  C   UNL     1       4.235  -1.061   0.640  1.00  0.00     0.173 C 
ATOM     12  O   UNL     1       5.417  -1.274   1.021  1.00  0.00    -0.294 OA
ATOM     13  C   UNL     1       3.910   0.173  -0.174  1.00  0.00     0.099 C 
ATOM     14  C   UNL     1       2.610   0.567  -0.305  1.00  0.00     0.121 C 
ATOM     15  C   UNL     1       1.564  -0.136   0.547  1.00  0.00     0.095 C 
ATOM     16  C   UNL     1       1.686   0.341   2.021  1.00  0.00     0.029 C 
ENDROOT
BRANCH   1  17
ATOM     17  C   UNL     1      -2.164  -3.148   0.515  1.00  0.00     0.123 C 
ATOM     18  C   UNL     1      -3.147  -3.487   1.350  1.00  0.00     0.059 C 
BRANCH  17  19
ATOM     19  O   UNL     1      -1.525  -4.152  -0.209  1.00  0.00    -0.508 OA
ATOM     20  H   UNL     1      -0.797  -3.940  -0.881  1.00  0.00     0.293 HD
ENDBRANCH  17  19
ENDBRANCH   1  17
BRANCH   2  21
ATOM     21  O   UNL     1      -4.016  -0.996   0.040  1.00  0.00    -0.425 OA
BRANCH  21  22
ATOM     22  C   UNL     1      -4.791  -0.617  -1.062  1.00  0.00     0.308 C 
ATOM     23  C   UNL     1      -6.260  -0.867  -1.045  1.00  0.00     0.139 C 
ATOM     24  O   UNL     1      -4.254  -0.124  -2.091  1.00  0.00    -0.252 OA
ENDBRANCH  21  22
ENDBRANCH   2  21
BRANCH   5  25
ATOM     25  O   UNL     1      -0.311   2.256   0.206  1.00  0.00    -0.426 OA
BRANCH  25  26
ATOM     26  C   UNL     1      -0.647   3.264  -0.706  1.00  0.00     0.308 C 
ATOM     27  C   UNL     1      -0.215   4.665  -0.440  1.00  0.00     0.139 C 
ATOM     28  O   UNL     1      -1.230   2.986  -1.790  1.00  0.00    -0.252 OA
ENDBRANCH  25  26
ENDBRANCH   5  25
BRANCH  14  29
ATOM     29  O   UNL     1       2.265   1.546  -1.237  1.00  0.00    -0.510 OA
ATOM     30  H   UNL     1       1.317   1.669  -1.558  1.00  0.00     0.293 HD
ENDBRANCH  14  29
BRANCH  13  31
ATOM     31  C   UNL     1       4.989   0.894  -0.900  1.00  0.00     0.166 C 
ATOM     32  C   UNL     1       6.214   0.186  -1.391  1.00  0.00     0.094 C 
ATOM     33  O   UNL     1       4.899   2.138  -1.085  1.00  0.00    -0.294 OA
ENDBRANCH  13  31
TORSDOF 8
