REMARK SMILES C=C(O)c1c(OC(C)=O)c(C)c(OC(C)=O)c2c1O[C@@H]1C=C(O)C(C(C)=O)=C(O)[C@]21C
REMARK SMILES IDX 22 1 21 2 20 3 19 4 18 5 4 6 5 7 10 8 11 9 12 10 17 11 30 12
REMARK SMILES IDX 31 13 28 14 24 15 23 16 25 18 26 19 27 20 29 21 2 23 1 24
REMARK SMILES IDX 3 25 13 27 14 28 15 29 16 30 6 31 7 32 8 33 9 34
REMARK H PARENT 23 17 29 22 3 26
ROOT
ATOM      1  C   UNL     1      -3.031  -0.243   1.989  1.00  0.00     0.129 C 
ATOM      2  C   UNL     1      -2.421   0.912   2.240  1.00  0.00     0.065 C 
ATOM      3  C   UNL     1      -1.804   1.774   1.177  1.00  0.00     0.218 C 
ATOM      4  O   UNL     1      -0.472   2.056   1.590  1.00  0.00    -0.483 OA
ATOM      5  C   UNL     1       0.426   1.322   0.846  1.00  0.00     0.143 A 
ATOM      6  C   UNL     1       1.798   1.217   1.087  1.00  0.00     0.101 A 
ATOM      7  C   UNL     1       2.572   0.431   0.206  1.00  0.00     0.152 A 
ATOM      8  C   UNL     1       1.951  -0.250  -0.878  1.00  0.00     0.036 A 
ATOM      9  C   UNL     1       2.761  -1.154  -1.775  1.00  0.00     0.052 C 
ATOM     10  C   UNL     1       0.546  -0.143  -1.061  1.00  0.00     0.145 A 
ATOM     11  C   UNL     1      -0.190   0.676  -0.191  1.00  0.00     0.056 A 
ATOM     12  C   UNL     1      -1.649   1.078  -0.225  1.00  0.00     0.098 C 
ATOM     13  C   UNL     1      -1.845   2.143  -1.328  1.00  0.00     0.030 C 
ATOM     14  C   UNL     1      -2.591  -0.111  -0.435  1.00  0.00     0.121 C 
ATOM     15  C   UNL     1      -3.161  -0.755   0.603  1.00  0.00     0.097 C 
ENDROOT
BRANCH   1  16
ATOM     16  O   UNL     1      -3.579  -0.935   3.073  1.00  0.00    -0.507 OA
ATOM     17  H   UNL     1      -4.104  -1.793   2.973  1.00  0.00     0.293 HD
ENDBRANCH   1  16
BRANCH  15  18
ATOM     18  C   UNL     1      -3.964  -1.974   0.358  1.00  0.00     0.166 C 
ATOM     19  C   UNL     1      -5.187  -1.940  -0.503  1.00  0.00     0.094 C 
ATOM     20  O   UNL     1      -3.594  -3.070   0.857  1.00  0.00    -0.294 OA
ENDBRANCH  15  18
BRANCH  14  21
ATOM     21  O   UNL     1      -2.861  -0.576  -1.728  1.00  0.00    -0.510 OA
ATOM     22  H   UNL     1      -2.505  -0.139  -2.566  1.00  0.00     0.293 HD
ENDBRANCH  14  21
BRANCH   6  23
ATOM     23  C   UNL     1       2.408   1.900   2.251  1.00  0.00     0.123 C 
ATOM     24  C   UNL     1       1.938   1.699   3.482  1.00  0.00     0.059 C 
BRANCH  23  25
ATOM     25  O   UNL     1       3.486   2.763   2.075  1.00  0.00    -0.508 OA
ATOM     26  H   UNL     1       3.820   3.011   1.153  1.00  0.00     0.293 HD
ENDBRANCH  23  25
ENDBRANCH   6  23
BRANCH  10  27
ATOM     27  O   UNL     1      -0.107  -0.835  -2.085  1.00  0.00    -0.426 OA
BRANCH  27  28
ATOM     28  C   UNL     1      -0.237  -2.228  -2.094  1.00  0.00     0.308 C 
ATOM     29  C   UNL     1      -0.880  -2.896  -3.260  1.00  0.00     0.139 C 
ATOM     30  O   UNL     1       0.122  -2.916  -1.099  1.00  0.00    -0.252 OA
ENDBRANCH  27  28
ENDBRANCH  10  27
BRANCH   7  31
ATOM     31  O   UNL     1       3.945   0.290   0.447  1.00  0.00    -0.425 OA
BRANCH  31  32
ATOM     32  C   UNL     1       4.922   0.937  -0.318  1.00  0.00     0.308 C 
ATOM     33  C   UNL     1       6.362   0.713  -0.006  1.00  0.00     0.139 C 
ATOM     34  O   UNL     1       4.597   1.745  -1.230  1.00  0.00    -0.252 OA
ENDBRANCH  31  32
ENDBRANCH   7  31
TORSDOF 9
