REMARK SMILES Cc1ccc(Cl)cc1NC(=O)N(C)CCO
REMARK SMILES IDX 12 1 13 2 10 3 9 4 11 6 8 7 2 8 3 9 4 10 7 11 5 12 1 13 6 14
REMARK SMILES IDX 14 15 15 16 16 17
REMARK H PARENT 9 5 16 18
ROOT
ATOM      1  N   UNL     1       2.047  -1.131   0.106  1.00  0.00    -0.325 N 
ATOM      2  C   UNL     1       2.773  -2.367  -0.205  1.00  0.00     0.148 C 
ENDROOT
BRANCH   1   3
ATOM      3  C   UNL     1       0.605  -1.124  -0.003  1.00  0.00     0.321 C 
ATOM      4  N   UNL     1      -0.160   0.074   0.229  1.00  0.00    -0.308 N 
ATOM      5  H   UNL     1       0.317   0.999   0.185  1.00  0.00     0.171 HD
ATOM      6  O   UNL     1       0.004  -2.186  -0.329  1.00  0.00    -0.248 OA
BRANCH   4   7
ATOM      7  C   UNL     1      -1.588   0.067   0.412  1.00  0.00     0.047 A 
ATOM      8  C   UNL     1      -2.394   1.077  -0.165  1.00  0.00    -0.027 A 
ATOM      9  C   UNL     1      -3.779   1.075   0.071  1.00  0.00     0.007 A 
ATOM     10  C   UNL     1      -4.363   0.082   0.859  1.00  0.00     0.021 A 
ATOM     11  C   UNL     1      -2.190  -0.920   1.214  1.00  0.00     0.047 A 
ATOM     12  C   UNL     1      -3.571  -0.915   1.430  1.00  0.00     0.043 A 
ATOM     13  C   UNL     1      -1.791   2.161  -1.017  1.00  0.00     0.046 C 
ATOM     14  Cl  UNL     1      -4.306  -2.152   2.433  1.00  0.00    -0.084 Cl
ENDBRANCH   4   7
ENDBRANCH   1   3
BRANCH   1  15
ATOM     15  C   UNL     1       2.801   0.054   0.541  1.00  0.00     0.149 C 
BRANCH  15  16
ATOM     16  C   UNL     1       3.118   0.964  -0.646  1.00  0.00     0.177 C 
BRANCH  16  17
ATOM     17  O   UNL     1       3.994   0.312  -1.525  1.00  0.00    -0.395 OA
ATOM     18  H   UNL     1       4.163   0.949  -2.267  1.00  0.00     0.210 HD
ENDBRANCH  16  17
ENDBRANCH  15  16
ENDBRANCH   1  15
TORSDOF 5
