REMARK SMILES C[C@@H](OC(=O)Nc1cccc(Cl)c1)C(=O)[O-]
REMARK SMILES IDX 3 1 2 2 1 3 14 4 15 5 16 6 4 7 6 8 5 9 7 11 8 12 13 13 9 14
REMARK SMILES IDX 11 15 10 16 12 17
REMARK H PARENT 6 10
ROOT
ATOM      1  O   UNL     1       2.013  -0.622  -0.138  1.00  0.00    -0.440 OA
ENDROOT
BRANCH   1   2
ATOM      2  C   UNL     1       3.146  -0.413   0.706  1.00  0.00     0.221 C 
ATOM      3  C   UNL     1       3.443   1.082   0.837  1.00  0.00     0.060 C 
BRANCH   2   4
ATOM      4  C   UNL     1       4.330  -1.115   0.116  1.00  0.00     0.082 C 
ATOM      5  O   UNL     1       5.132  -1.739   0.860  1.00  0.00    -0.546 OA
ATOM      6  O   UNL     1       4.576  -1.045  -1.250  1.00  0.00    -0.546 OA
ENDBRANCH   2   4
ENDBRANCH   1   2
BRANCH   1   7
ATOM      7  C   UNL     1       0.694  -0.378   0.261  1.00  0.00     0.412 C 
ATOM      8  N   UNL     1      -0.367  -0.585  -0.681  1.00  0.00    -0.291 N 
ATOM      9  O   UNL     1       0.441  -0.025   1.445  1.00  0.00    -0.224 OA
ATOM     10  H   UNL     1      -0.139  -1.127  -1.545  1.00  0.00     0.173 HD
BRANCH   8  11
ATOM     11  C   UNL     1      -1.733  -0.194  -0.462  1.00  0.00     0.045 A 
ATOM     12  C   UNL     1      -2.058   0.976   0.249  1.00  0.00     0.026 A 
ATOM     13  C   UNL     1      -2.766  -0.963  -1.021  1.00  0.00     0.046 A 
ATOM     14  C   UNL     1      -3.395   1.345   0.426  1.00  0.00     0.004 A 
ATOM     15  C   UNL     1      -4.104  -0.592  -0.841  1.00  0.00     0.043 A 
ATOM     16  C   UNL     1      -4.417   0.561  -0.114  1.00  0.00     0.020 A 
ATOM     17  Cl  UNL     1      -5.386  -1.569  -1.531  1.00  0.00    -0.084 Cl
ENDBRANCH   8  11
ENDBRANCH   1   7
TORSDOF 4
