REMARK SMILES [SH2]=c1[nH]cnc2sc(Nc3ccccc3)nc12
REMARK SMILES IDX 3 1 4 2 5 3 6 4 7 5 8 6 16 7 17 8 2 9 1 11 9 14 10 16 11 17
REMARK SMILES IDX 15 18 12 19 14 20 13 21
REMARK H PARENT 3 10 1 12 1 13 9 15
ROOT
ATOM      1  N   UNL     1      -4.606   0.796  -0.033  1.00  0.00    -0.340 N 
ATOM      2  C   UNL     1      -4.203   1.835   0.762  1.00  0.00     0.199 A 
ATOM      3  N   UNL     1      -2.895   1.963   1.124  1.00  0.00    -0.226 NA
ATOM      4  C   UNL     1      -2.006   1.046   0.679  1.00  0.00     0.149 A 
ATOM      5  S   UNL     1      -0.362   0.985   1.000  1.00  0.00    -0.076 S 
ATOM      6  C   UNL     1      -0.184  -0.422   0.059  1.00  0.00     0.189 A 
ATOM      7  N   UNL     1      -1.360  -0.848  -0.466  1.00  0.00    -0.215 NA
ATOM      8  C   UNL     1      -2.374  -0.012  -0.121  1.00  0.00     0.131 A 
ATOM      9  C   UNL     1      -3.719  -0.140  -0.490  1.00  0.00     0.088 A 
ATOM     10  H   UNL     1      -5.618   0.729  -0.288  1.00  0.00     0.168 HD
ENDROOT
BRANCH   9  11
ATOM     11  S   UNL     1      -4.242  -1.356  -1.425  1.00  0.00    -0.190 S 
ATOM     12  H   UNL     1      -3.121  -2.052  -1.871  1.00  0.00     0.095 HD
ATOM     13  H   UNL     1      -4.703  -0.709  -2.568  1.00  0.00     0.095 HD
ENDBRANCH   9  11
BRANCH   6  14
ATOM     14  N   UNL     1       1.033  -1.163  -0.097  1.00  0.00    -0.331 N 
ATOM     15  H   UNL     1       0.954  -2.165  -0.381  1.00  0.00     0.169 HD
BRANCH  14  16
ATOM     16  C   UNL     1       2.337  -0.645   0.210  1.00  0.00     0.040 A 
ATOM     17  C   UNL     1       3.299  -1.494   0.780  1.00  0.00     0.026 A 
ATOM     18  C   UNL     1       2.693   0.676  -0.113  1.00  0.00     0.026 A 
ATOM     19  C   UNL     1       4.584  -1.018   1.062  1.00  0.00     0.002 A 
ATOM     20  C   UNL     1       3.979   1.149   0.169  1.00  0.00     0.002 A 
ATOM     21  C   UNL     1       4.922   0.304   0.761  1.00  0.00     0.000 A 
ENDBRANCH  14  16
ENDBRANCH   6  14
TORSDOF 3
