REMARK SMILES Sc1nc2ccccc2c2ccccc12
REMARK SMILES IDX 1 1 2 3 3 4 15 5 4 6 14 7 10 8 5 9 9 10 13 11 11 12 6 13
REMARK SMILES IDX 8 14 12 15 7 16
REMARK H PARENT 1 2
ROOT
ATOM      1  S   UNL     1      -2.130   3.117   0.919  1.00  0.00    -0.123 SA
ATOM      2  H   UNL     1      -1.958   2.866   2.293  1.00  0.00     0.109 HD
ENDROOT
BRANCH   1   3
ATOM      3  C   UNL     1      -1.004   1.791   0.468  1.00  0.00     0.102 A 
ATOM      4  N   UNL     1       0.306   2.104   0.331  1.00  0.00    -0.241 NA
ATOM      5  C   UNL     1      -1.437   0.465   0.259  1.00  0.00     0.014 A 
ATOM      6  C   UNL     1       1.248   1.191  -0.005  1.00  0.00     0.072 A 
ATOM      7  C   UNL     1      -2.796   0.111   0.396  1.00  0.00     0.011 A 
ATOM      8  C   UNL     1      -0.481  -0.532  -0.098  1.00  0.00    -0.006 A 
ATOM      9  C   UNL     1       2.579   1.606  -0.125  1.00  0.00     0.029 A 
ATOM     10  C   UNL     1       0.889  -0.162  -0.232  1.00  0.00     0.008 A 
ATOM     11  C   UNL     1      -3.212  -1.201   0.187  1.00  0.00     0.001 A 
ATOM     12  C   UNL     1      -0.939  -1.857  -0.303  1.00  0.00     0.009 A 
ATOM     13  C   UNL     1       3.573   0.691  -0.469  1.00  0.00     0.002 A 
ATOM     14  C   UNL     1       1.917  -1.073  -0.582  1.00  0.00     0.011 A 
ATOM     15  C   UNL     1      -2.289  -2.180  -0.161  1.00  0.00     0.001 A 
ATOM     16  C   UNL     1       3.242  -0.643  -0.697  1.00  0.00     0.001 A 
ENDBRANCH   1   3
TORSDOF 1
