REMARK SMILES CCOC(=O)c1ccc(NC(=O)Nc2ncc(Cl)cc2Cl)cc1
REMARK SMILES IDX 6 1 7 2 8 3 9 4 22 5 23 6 4 7 5 8 3 9 2 10 1 11 10 12 11 13
REMARK SMILES IDX 13 14 12 16 14 18 15 19 20 20 16 21 19 22 17 23 21 24 18 25
REMARK H PARENT 10 15 13 17
ROOT
ATOM      1  C   UNL     1       2.804   0.448   0.456  1.00  0.00     0.060 A 
ATOM      2  C   UNL     1       1.884  -0.513   0.910  1.00  0.00     0.018 A 
ATOM      3  C   UNL     1       0.590  -0.562   0.384  1.00  0.00     0.027 A 
ATOM      4  C   UNL     1       0.186   0.358  -0.598  1.00  0.00     0.042 A 
ATOM      5  C   UNL     1       1.110   1.301  -1.069  1.00  0.00     0.027 A 
ATOM      6  C   UNL     1       2.404   1.353  -0.543  1.00  0.00     0.018 A 
ENDROOT
BRANCH   1   7
ATOM      7  C   UNL     1       4.174   0.504   1.010  1.00  0.00     0.338 C 
ATOM      8  O   UNL     1       4.531  -0.316   1.900  1.00  0.00    -0.246 OA
BRANCH   7   9
ATOM      9  O   UNL     1       5.073   1.475   0.547  1.00  0.00    -0.462 OA
BRANCH   9  10
ATOM     10  C   UNL     1       6.427   1.566   0.985  1.00  0.00     0.230 C 
ATOM     11  C   UNL     1       7.277   0.481   0.334  1.00  0.00     0.049 C 
ENDBRANCH   9  10
ENDBRANCH   7   9
ENDBRANCH   1   7
BRANCH   4  12
ATOM     12  N   UNL     1      -1.131   0.314  -1.174  1.00  0.00    -0.308 N 
ATOM     13  C   UNL     1      -2.316  -0.054  -0.450  1.00  0.00     0.324 C 
ATOM     14  N   UNL     1      -3.540  -0.283  -1.168  1.00  0.00    -0.291 N 
ATOM     15  H   UNL     1      -1.248   0.647  -2.157  1.00  0.00     0.171 HD
ATOM     16  O   UNL     1      -2.291  -0.125   0.809  1.00  0.00    -0.248 OA
ATOM     17  H   UNL     1      -3.514  -0.126  -2.200  1.00  0.00     0.173 HD
BRANCH  14  18
ATOM     18  C   UNL     1      -4.767  -0.730  -0.558  1.00  0.00     0.152 A 
ATOM     19  N   UNL     1      -4.775  -1.135   0.744  1.00  0.00    -0.236 NA
ATOM     20  C   UNL     1      -5.969  -0.775  -1.296  1.00  0.00     0.085 A 
ATOM     21  C   UNL     1      -5.901  -1.576   1.363  1.00  0.00     0.134 A 
ATOM     22  C   UNL     1      -7.136  -1.228  -0.672  1.00  0.00     0.046 A 
ATOM     23  C   UNL     1      -7.106  -1.631   0.663  1.00  0.00     0.061 A 
ATOM     24  Cl  UNL     1      -6.060  -0.263  -2.977  1.00  0.00    -0.080 Cl
ATOM     25  Cl  UNL     1      -8.566  -2.200   1.452  1.00  0.00    -0.083 Cl
ENDBRANCH  14  18
ENDBRANCH   4  12
TORSDOF 5
