REMARK SMILES Clc1cc2c(c(CSc3nc4ccccc4n4cccc34)c1)OCOC2
REMARK SMILES IDX 7 1 6 2 2 3 3 4 22 5 4 6 5 7 26 8 23 9 25 10 24 11 1 12 8 13
REMARK SMILES IDX 9 14 10 15 21 16 11 17 20 18 17 19 12 20 16 21 19 22 18 23
REMARK SMILES IDX 13 24 15 25 14 26
REMARK H PARENT
ROOT
ATOM      1  C   UNL     1       0.836   1.047  -0.462  1.00  0.00     0.116 C 
ENDROOT
BRANCH   1   2
ATOM      2  C   UNL     1       2.318   1.281  -0.382  1.00  0.00     0.006 A 
ATOM      3  C   UNL     1       4.224   2.786  -0.537  1.00  0.00     0.041 A 
ATOM      4  C   UNL     1       5.082   1.750  -0.153  1.00  0.00     0.030 A 
ATOM      5  C   UNL     1       2.848   2.554  -0.649  1.00  0.00     0.029 A 
ATOM      6  C   UNL     1       4.561   0.477   0.113  1.00  0.00     0.022 A 
ATOM      7  C   UNL     1       3.184   0.249   0.022  1.00  0.00     0.132 A 
ATOM      8  C   UNL     1       5.436  -0.658   0.577  1.00  0.00     0.204 C 
ATOM      9  O   UNL     1       2.701  -1.024   0.330  1.00  0.00    -0.467 OA
ATOM     10  O   UNL     1       4.857  -1.919   0.276  1.00  0.00    -0.340 OA
ATOM     11  C   UNL     1       3.575  -2.015   0.871  1.00  0.00     0.395 C 
ATOM     12  Cl  UNL     1       4.874   4.382  -0.869  1.00  0.00    -0.084 Cl
ENDBRANCH   1   2
BRANCH   1  13
ATOM     13  S   UNL     1       0.110   1.194   1.204  1.00  0.00    -0.099 SA
BRANCH  13  14
ATOM     14  C   UNL     1      -1.484   0.551   0.693  1.00  0.00     0.121 A 
ATOM     15  N   UNL     1      -2.454   1.404   0.258  1.00  0.00    -0.238 NA
ATOM     16  C   UNL     1      -1.771  -0.817   0.724  1.00  0.00     0.078 A 
ATOM     17  C   UNL     1      -3.679   0.953  -0.142  1.00  0.00     0.088 A 
ATOM     18  C   UNL     1      -0.959  -1.863   1.115  1.00  0.00     0.031 A 
ATOM     19  N   UNL     1      -2.975  -1.271   0.330  1.00  0.00    -0.313 N 
ATOM     20  C   UNL     1      -4.653   1.854  -0.585  1.00  0.00     0.030 A 
ATOM     21  C   UNL     1      -3.961  -0.436  -0.110  1.00  0.00     0.071 A 
ATOM     22  C   UNL     1      -1.719  -3.009   0.946  1.00  0.00     0.021 A 
ATOM     23  C   UNL     1      -2.956  -2.614   0.462  1.00  0.00     0.092 A 
ATOM     24  C   UNL     1      -5.904   1.385  -0.995  1.00  0.00     0.002 A 
ATOM     25  C   UNL     1      -5.224  -0.897  -0.524  1.00  0.00     0.029 A 
ATOM     26  C   UNL     1      -6.188   0.016  -0.965  1.00  0.00     0.002 A 
ENDBRANCH  13  14
ENDBRANCH   1  13
TORSDOF 3
