REMARK SMILES Nc1ccc(SCc2nc3cccc4c3n2CCC4)cc1
REMARK SMILES IDX 2 1 3 2 4 3 5 4 20 5 21 6 1 7 6 10 7 11 8 12 9 13 16 14
REMARK SMILES IDX 10 15 15 16 17 17 11 18 14 19 18 20 12 21 13 22 19 23
REMARK H PARENT 1 8 1 9
ROOT
ATOM      1  C   UNL     1       4.130  -0.383   0.349  1.00  0.00     0.031 A 
ATOM      2  C   UNL     1       4.341   0.194  -0.912  1.00  0.00     0.026 A 
ATOM      3  C   UNL     1       3.407   1.091  -1.440  1.00  0.00     0.017 A 
ATOM      4  C   UNL     1       2.255   1.413  -0.714  1.00  0.00     0.008 A 
ATOM      5  C   UNL     1       2.048   0.848   0.551  1.00  0.00     0.017 A 
ATOM      6  C   UNL     1       2.979  -0.050   1.079  1.00  0.00     0.026 A 
ENDROOT
BRANCH   1   7
ATOM      7  N   UNL     1       5.083  -1.303   0.888  1.00  0.00    -0.399 N 
ATOM      8  H   UNL     1       4.935  -1.738   1.826  1.00  0.00     0.156 HD
ATOM      9  H   UNL     1       5.943  -1.557   0.352  1.00  0.00     0.156 HD
ENDBRANCH   1   7
BRANCH   4  10
ATOM     10  S   UNL     1       1.047   2.553  -1.397  1.00  0.00    -0.118 SA
BRANCH  10  11
ATOM     11  C   UNL     1       0.129   1.284  -2.339  1.00  0.00     0.150 C 
BRANCH  11  12
ATOM     12  C   UNL     1      -0.524   0.300  -1.419  1.00  0.00     0.120 A 
ATOM     13  N   UNL     1      -0.045  -0.966  -1.228  1.00  0.00    -0.232 NA
ATOM     14  N   UNL     1      -1.599   0.583  -0.639  1.00  0.00    -0.327 N 
ATOM     15  C   UNL     1      -0.890  -1.470  -0.304  1.00  0.00     0.089 A 
ATOM     16  C   UNL     1      -1.815  -0.542   0.029  1.00  0.00     0.071 A 
ATOM     17  C   UNL     1      -2.471   1.754  -0.550  1.00  0.00     0.124 C 
ATOM     18  C   UNL     1      -0.903  -2.736   0.279  1.00  0.00     0.030 A 
ATOM     19  C   UNL     1      -2.823  -0.748   0.947  1.00  0.00    -0.022 A 
ATOM     20  C   UNL     1      -3.223   1.748   0.807  1.00  0.00     0.027 C 
ATOM     21  C   UNL     1      -1.923  -3.010   1.221  1.00  0.00     0.003 A 
ATOM     22  C   UNL     1      -2.889  -2.022   1.550  1.00  0.00     0.006 A 
ATOM     23  C   UNL     1      -3.825   0.359   1.160  1.00  0.00     0.039 C 
ENDBRANCH  11  12
ENDBRANCH  10  11
ENDBRANCH   4  10
TORSDOF 4
